
  Mrv1812 01171911372D          

  7  6  0  0  0  0            999 V2000
    0.4398    0.9660    0.0000 N   0  0  0  0  0  0  0  0  0  0  0  0
    0.0273    0.2515    0.0000 C   0  0  0  0  0  0  0  0  0  0  0  0
    0.4398   -0.4630    0.0000 O   0  0  0  0  0  0  0  0  0  0  0  0
   -0.7977    0.2515    0.0000 O   0  0  0  0  0  0  0  0  0  0  0  0
    1.2648    0.9660    0.0000 H   0  0  0  0  0  0  0  0  0  0  0  0
    0.0273    1.6804    0.0000 H   0  0  0  0  0  0  0  0  0  0  0  0
    0.0273   -1.1774    0.0000 H   0  0  0  0  0  0  0  0  0  0  0  0
  1  2  1  0  0  0  0
  2  3  1  0  0  0  0
  2  4  2  0  0  0  0
  1  5  1  0  0  0  0
  1  6  1  0  0  0  0
  3  7  1  0  0  0  0
M  END
> <id>
906855; 906856; 906857

> <casrn>
1111-78-0

> <smiles (First)>
[NH4+].O.NC([O-])=O

> <Molecular weight>
60.032081604003906

> <name>
Ammonium carbamate

> <Outcome>
1

> <Molecule (RDKit Mol) (InChI Code)>
InChI=1S/CH3NO2/c2-1(3)4/h2H2,(H,3,4)

> <reference>
ToxValDB

> <molecule_form>
not specified

$$$$

  Mrv1812 01171911372D          

 42 41  0  0  0  0            999 V2000
    5.1769   -1.0642    0.0000 C   0  0  0  0  0  0  0  0  0  0  0  0
    4.3519   -1.0642    0.0000 C   0  0  0  0  0  0  0  0  0  0  0  0
    3.9394   -1.7787    0.0000 C   0  0  0  0  0  0  0  0  0  0  0  0
    3.9394   -0.3498    0.0000 C   0  0  0  0  0  0  0  0  0  0  0  0
    3.1144   -0.3498    0.0000 C   0  0  0  0  0  0  0  0  0  0  0  0
    3.1144    0.4752    0.0000 C   0  0  0  0  0  0  0  0  0  0  0  0
    3.1144   -1.1748    0.0000 O   0  0  0  0  0  0  0  0  0  0  0  0
    2.2894   -0.3498    0.0000 C   0  0  0  0  0  0  0  0  0  0  0  0
    1.4644   -0.3498    0.0000 C   0  0  0  0  0  0  0  0  0  0  0  0
    0.6394   -0.3498    0.0000 C   0  0  0  0  0  0  0  0  0  0  0  0
    0.6394    0.4752    0.0000 C   0  0  0  0  0  0  0  0  0  0  0  0
    0.6394   -1.1748    0.0000 O   0  0  0  0  0  0  0  0  0  0  0  0
   -0.1856   -0.3498    0.0000 C   0  0  0  0  0  0  0  0  0  0  0  0
   -0.5981    0.3647    0.0000 C   0  0  0  0  0  0  0  0  0  0  0  0
   -1.4231    0.3647    0.0000 C   0  0  0  0  0  0  0  0  0  0  0  0
   -0.1856    1.0792    0.0000 C   0  0  0  0  0  0  0  0  0  0  0  0
    5.1769   -1.8892    0.0000 H   0  0  0  0  0  0  0  0  0  0  0  0
    6.0019   -1.0642    0.0000 H   0  0  0  0  0  0  0  0  0  0  0  0
    5.1769   -0.2392    0.0000 H   0  0  0  0  0  0  0  0  0  0  0  0
    4.7644   -1.7787    0.0000 H   0  0  0  0  0  0  0  0  0  0  0  0
    3.3560   -1.1953    0.0000 H   0  0  0  0  0  0  0  0  0  0  0  0
    3.2249   -2.1912    0.0000 H   0  0  0  0  0  0  0  0  0  0  0  0
    4.1529   -2.5756    0.0000 H   0  0  0  0  0  0  0  0  0  0  0  0
    4.6287    0.1036    0.0000 H   0  0  0  0  0  0  0  0  0  0  0  0
    3.9874    0.4738    0.0000 H   0  0  0  0  0  0  0  0  0  0  0  0
    3.4310    1.2371    0.0000 H   0  0  0  0  0  0  0  0  0  0  0  0
    2.5315    1.0591    0.0000 H   0  0  0  0  0  0  0  0  0  0  0  0
    2.3521    0.1598    0.0000 H   0  0  0  0  0  0  0  0  0  0  0  0
    2.5068   -1.7328    0.0000 H   0  0  0  0  0  0  0  0  0  0  0  0
    1.4644    0.4752    0.0000 H   0  0  0  0  0  0  0  0  0  0  0  0
    0.6394    1.3002    0.0000 H   0  0  0  0  0  0  0  0  0  0  0  0
   -0.1856    0.4752    0.0000 H   0  0  0  0  0  0  0  0  0  0  0  0
   -0.0751   -1.5873    0.0000 H   0  0  0  0  0  0  0  0  0  0  0  0
   -0.8749   -0.8031    0.0000 H   0  0  0  0  0  0  0  0  0  0  0  0
   -0.2336   -1.1734    0.0000 H   0  0  0  0  0  0  0  0  0  0  0  0
   -1.0106   -0.3498    0.0000 H   0  0  0  0  0  0  0  0  0  0  0  0
   -1.2096    1.1616    0.0000 H   0  0  0  0  0  0  0  0  0  0  0  0
   -2.1376    0.7772    0.0000 H   0  0  0  0  0  0  0  0  0  0  0  0
   -2.0065   -0.2187    0.0000 H   0  0  0  0  0  0  0  0  0  0  0  0
    0.0796    1.8604    0.0000 H   0  0  0  0  0  0  0  0  0  0  0  0
   -0.6878    1.7337    0.0000 H   0  0  0  0  0  0  0  0  0  0  0  0
   -1.0088    1.0252    0.0000 H   0  0  0  0  0  0  0  0  0  0  0  0
  1  2  1  0  0  0  0
  2  3  1  0  0  0  0
  2  4  1  0  0  0  0
  4  5  1  0  0  0  0
  5  6  1  0  0  0  0
  5  7  1  0  0  0  0
  5  8  1  0  0  0  0
  8  9  3  0  0  0  0
  9 10  1  0  0  0  0
 10 11  1  0  0  0  0
 10 12  1  0  0  0  0
 10 13  1  0  0  0  0
 13 14  1  0  0  0  0
 14 15  1  0  0  0  0
 14 16  1  0  0  0  0
  1 17  1  0  0  0  0
  1 18  1  0  0  0  0
  1 19  1  0  0  0  0
  2 20  1  0  0  0  0
  3 21  1  0  0  0  0
  3 22  1  0  0  0  0
  3 23  1  0  0  0  0
  4 24  1  0  0  0  0
  4 25  1  0  0  0  0
  6 26  1  0  0  0  0
  6 27  1  0  0  0  0
  6 28  1  0  0  0  0
  7 29  1  0  0  0  0
 11 30  1  0  0  0  0
 11 31  1  0  0  0  0
 11 32  1  0  0  0  0
 12 33  1  0  0  0  0
 13 34  1  0  0  0  0
 13 35  1  0  0  0  0
 14 36  1  0  0  0  0
 15 37  1  0  0  0  0
 15 38  1  0  0  0  0
 15 39  1  0  0  0  0
 16 40  1  0  0  0  0
 16 41  1  0  0  0  0
 16 42  1  0  0  0  0
M  END
> <id>
797537

> <casrn>
126-86-3

> <smiles (First)>
CC(C)CC(C)(O)C#CC(C)(O)CC(C)C

> <Molecular weight>
226.35504150390625

> <name>
2,4,7,9-Tetramethyl-5-decyne-4,7-diol

> <Outcome>
0

> <Molecule (RDKit Mol) (InChI Code)>
InChI=1S/C14H26O2/c1-11(2)9-13(5,15)7-8-14(6,16)10-12(3)4/h11-12,15-16H,9-10H2,1-6H3

> <reference>
ToxValDB

> <molecule_form>
not specified

$$$$

  Mrv1812 01171911372D          

 23 22  0  0  0  0            999 V2000
   -0.0001    0.2152    0.0000 C   0  0  0  0  0  0  0  0  0  0  0  0
    0.7144   -0.1973    0.0000 O   0  0  0  0  0  0  0  0  0  0  0  0
    1.4288    0.2152    0.0000 C   0  0  0  0  0  0  0  0  0  0  0  0
    2.1433   -0.1973    0.0000 C   0  0  0  0  0  0  0  0  0  0  0  0
    2.8578    0.2152    0.0000 O   0  0  0  0  0  0  0  0  0  0  0  0
    3.5723   -0.1973    0.0000 C   0  0  0  0  0  0  0  0  0  0  0  0
    4.2867    0.2152    0.0000 C   0  0  0  0  0  0  0  0  0  0  0  0
    5.0012   -0.1973    0.0000 O   0  0  0  0  0  0  0  0  0  0  0  0
    5.7157    0.2152    0.0000 C   0  0  0  0  0  0  0  0  0  0  0  0
    0.4124    0.9297    0.0000 H   0  0  0  0  0  0  0  0  0  0  0  0
   -0.7146    0.6277    0.0000 H   0  0  0  0  0  0  0  0  0  0  0  0
   -0.4126   -0.4993    0.0000 H   0  0  0  0  0  0  0  0  0  0  0  0
    1.7991    0.9524    0.0000 H   0  0  0  0  0  0  0  0  0  0  0  0
    1.0586    0.9524    0.0000 H   0  0  0  0  0  0  0  0  0  0  0  0
    1.7731   -0.9345    0.0000 H   0  0  0  0  0  0  0  0  0  0  0  0
    2.5136   -0.9345    0.0000 H   0  0  0  0  0  0  0  0  0  0  0  0
    3.2020   -0.9345    0.0000 H   0  0  0  0  0  0  0  0  0  0  0  0
    3.9425   -0.9345    0.0000 H   0  0  0  0  0  0  0  0  0  0  0  0
    4.6570    0.9524    0.0000 H   0  0  0  0  0  0  0  0  0  0  0  0
    3.9165    0.9524    0.0000 H   0  0  0  0  0  0  0  0  0  0  0  0
    6.1282   -0.4993    0.0000 H   0  0  0  0  0  0  0  0  0  0  0  0
    6.4301    0.6277    0.0000 H   0  0  0  0  0  0  0  0  0  0  0  0
    5.3032    0.9297    0.0000 H   0  0  0  0  0  0  0  0  0  0  0  0
  1  2  1  0  0  0  0
  2  3  1  0  0  0  0
  3  4  1  0  0  0  0
  4  5  1  0  0  0  0
  5  6  1  0  0  0  0
  6  7  1  0  0  0  0
  7  8  1  0  0  0  0
  8  9  1  0  0  0  0
  1 10  1  0  0  0  0
  1 11  1  0  0  0  0
  1 12  1  0  0  0  0
  3 13  1  0  0  0  0
  3 14  1  0  0  0  0
  4 15  1  0  0  0  0
  4 16  1  0  0  0  0
  6 17  1  0  0  0  0
  6 18  1  0  0  0  0
  7 19  1  0  0  0  0
  7 20  1  0  0  0  0
  9 21  1  0  0  0  0
  9 22  1  0  0  0  0
  9 23  1  0  0  0  0
M  END
> <id>
209371

> <casrn>
111-96-6

> <smiles (First)>
COCCOCCOC

> <Molecular weight>
134.17356872558594

> <name>
Diethylene glycol dimethyl ether

> <Outcome>
0

> <Molecule (RDKit Mol) (InChI Code)>
InChI=1S/C6H14O3/c1-7-3-5-9-6-4-8-2/h3-6H2,1-2H3

> <reference>
ToxValDB

> <molecule_form>
not specified

$$$$

  Mrv1812 01171911372D          

 19 18  0  0  0  0            999 V2000
   -0.6305   -0.7381    0.0000 C   0  0  0  0  0  0  0  0  0  0  0  0
    0.0840   -1.1506    0.0000 C   0  0  0  0  0  0  0  0  0  0  0  0
    0.7985   -0.7381    0.0000 C   0  0  0  0  0  0  0  0  0  0  0  0
    0.7985    0.0869    0.0000 O   0  0  0  0  0  0  0  0  0  0  0  0
    1.5130   -1.1506    0.0000 O   0  0  0  0  0  0  0  0  0  0  0  0
    2.2274   -0.7381    0.0000 C   0  0  0  0  0  0  0  0  0  0  0  0
    2.2274    0.0869    0.0000 O   0  0  0  0  0  0  0  0  0  0  0  0
    2.9419   -1.1506    0.0000 C   0  0  0  0  0  0  0  0  0  0  0  0
    3.6564   -0.7381    0.0000 C   0  0  0  0  0  0  0  0  0  0  0  0
   -0.2180   -0.0237    0.0000 H   0  0  0  0  0  0  0  0  0  0  0  0
   -1.3449   -0.3256    0.0000 H   0  0  0  0  0  0  0  0  0  0  0  0
   -1.0430   -1.4526    0.0000 H   0  0  0  0  0  0  0  0  0  0  0  0
   -0.2862   -1.8879    0.0000 H   0  0  0  0  0  0  0  0  0  0  0  0
    0.4543   -1.8879    0.0000 H   0  0  0  0  0  0  0  0  0  0  0  0
    2.5716   -1.8879    0.0000 H   0  0  0  0  0  0  0  0  0  0  0  0
    3.3122   -1.8879    0.0000 H   0  0  0  0  0  0  0  0  0  0  0  0
    4.0689   -1.4526    0.0000 H   0  0  0  0  0  0  0  0  0  0  0  0
    4.3708   -0.3256    0.0000 H   0  0  0  0  0  0  0  0  0  0  0  0
    3.2439   -0.0237    0.0000 H   0  0  0  0  0  0  0  0  0  0  0  0
  1  2  1  0  0  0  0
  2  3  1  0  0  0  0
  3  4  2  0  0  0  0
  3  5  1  0  0  0  0
  5  6  1  0  0  0  0
  6  7  2  0  0  0  0
  6  8  1  0  0  0  0
  8  9  1  0  0  0  0
  1 10  1  0  0  0  0
  1 11  1  0  0  0  0
  1 12  1  0  0  0  0
  2 13  1  0  0  0  0
  2 14  1  0  0  0  0
  8 15  1  0  0  0  0
  8 16  1  0  0  0  0
  9 17  1  0  0  0  0
  9 18  1  0  0  0  0
  9 19  1  0  0  0  0
M  END
> <id>
219995

> <casrn>
123-62-6

> <smiles (First)>
CCC(=O)OC(=O)CC

> <Molecular weight>
130.1417999267578

> <name>
Propanoic anhydride

> <Outcome>
0

> <Molecule (RDKit Mol) (InChI Code)>
InChI=1S/C6H10O3/c1-3-5(7)9-6(8)4-2/h3-4H2,1-2H3

> <reference>
ToxValDB

> <molecule_form>
not specified

$$$$

  Mrv1812 01171911372D          

 11 10  0  0  0  0            999 V2000
    0.6712    1.0143    0.0000 C   0  0  0  0  0  0  0  0  0  0  0  0
    1.0837    0.2998    0.0000 C   0  0  0  0  0  0  0  0  0  0  0  0
    0.6712   -0.4146    0.0000 C   0  0  0  0  0  0  0  0  0  0  0  0
    1.0837   -1.1291    0.0000 O   0  0  0  0  0  0  0  0  0  0  0  0
   -0.1538   -0.4146    0.0000 O   0  0  0  0  0  0  0  0  0  0  0  0
    1.3857    1.4268    0.0000 H   0  0  0  0  0  0  0  0  0  0  0  0
    0.2587    1.7288    0.0000 H   0  0  0  0  0  0  0  0  0  0  0  0
   -0.0433    0.6018    0.0000 H   0  0  0  0  0  0  0  0  0  0  0  0
    1.8209   -0.0704    0.0000 H   0  0  0  0  0  0  0  0  0  0  0  0
    1.8209    0.6701    0.0000 H   0  0  0  0  0  0  0  0  0  0  0  0
    0.6712   -1.8436    0.0000 H   0  0  0  0  0  0  0  0  0  0  0  0
  1  2  1  0  0  0  0
  2  3  1  0  0  0  0
  3  4  1  0  0  0  0
  3  5  2  0  0  0  0
  1  6  1  0  0  0  0
  1  7  1  0  0  0  0
  1  8  1  0  0  0  0
  2  9  1  0  0  0  0
  2 10  1  0  0  0  0
  4 11  1  0  0  0  0
M  END
> <id>
326907

> <casrn>
79-09-4

> <smiles (First)>
CCC(O)=O

> <Molecular weight>
74.07854461669922

> <name>
Propionic acid

> <Outcome>
0

> <Molecule (RDKit Mol) (InChI Code)>
InChI=1S/C3H6O2/c1-2-3(4)5/h2H2,1H3,(H,4,5)

> <reference>
ToxValDB

> <molecule_form>
not specified

$$$$

  Mrv1812 01171911372D          

 30 29  0  0  0  0            999 V2000
    0.0003    0.0000    0.0000 C   0  0  0  0  0  0  0  0  0  0  0  0
    0.7148    0.4125    0.0000 O   0  0  0  0  0  0  0  0  0  0  0  0
    1.4292    0.0000    0.0000 C   0  0  0  0  0  0  0  0  0  0  0  0
    2.1437    0.4125    0.0000 C   0  0  0  0  0  0  0  0  0  0  0  0
    2.8582    0.0000    0.0000 O   0  0  0  0  0  0  0  0  0  0  0  0
    3.5727    0.4125    0.0000 C   0  0  0  0  0  0  0  0  0  0  0  0
    4.2871    0.0000    0.0000 C   0  0  0  0  0  0  0  0  0  0  0  0
    5.0016    0.4125    0.0000 O   0  0  0  0  0  0  0  0  0  0  0  0
    5.7161    0.0000    0.0000 C   0  0  0  0  0  0  0  0  0  0  0  0
    6.4305    0.4125    0.0000 C   0  0  0  0  0  0  0  0  0  0  0  0
    7.1450    0.0000    0.0000 O   0  0  0  0  0  0  0  0  0  0  0  0
    7.8595    0.4125    0.0000 C   0  0  0  0  0  0  0  0  0  0  0  0
   -0.4122    0.7145    0.0000 H   0  0  0  0  0  0  0  0  0  0  0  0
   -0.7142   -0.4125    0.0000 H   0  0  0  0  0  0  0  0  0  0  0  0
    0.4128   -0.7145    0.0000 H   0  0  0  0  0  0  0  0  0  0  0  0
    1.0590   -0.7372    0.0000 H   0  0  0  0  0  0  0  0  0  0  0  0
    1.7995   -0.7372    0.0000 H   0  0  0  0  0  0  0  0  0  0  0  0
    2.5140    1.1497    0.0000 H   0  0  0  0  0  0  0  0  0  0  0  0
    1.7735    1.1497    0.0000 H   0  0  0  0  0  0  0  0  0  0  0  0
    3.9429    1.1497    0.0000 H   0  0  0  0  0  0  0  0  0  0  0  0
    3.2024    1.1497    0.0000 H   0  0  0  0  0  0  0  0  0  0  0  0
    3.9169   -0.7372    0.0000 H   0  0  0  0  0  0  0  0  0  0  0  0
    4.6574   -0.7372    0.0000 H   0  0  0  0  0  0  0  0  0  0  0  0
    5.3458   -0.7372    0.0000 H   0  0  0  0  0  0  0  0  0  0  0  0
    6.0863   -0.7372    0.0000 H   0  0  0  0  0  0  0  0  0  0  0  0
    6.8008    1.1497    0.0000 H   0  0  0  0  0  0  0  0  0  0  0  0
    6.0603    1.1497    0.0000 H   0  0  0  0  0  0  0  0  0  0  0  0
    8.2720   -0.3020    0.0000 H   0  0  0  0  0  0  0  0  0  0  0  0
    8.5739    0.8250    0.0000 H   0  0  0  0  0  0  0  0  0  0  0  0
    7.4470    1.1270    0.0000 H   0  0  0  0  0  0  0  0  0  0  0  0
  1  2  1  0  0  0  0
  2  3  1  0  0  0  0
  3  4  1  0  0  0  0
  4  5  1  0  0  0  0
  5  6  1  0  0  0  0
  6  7  1  0  0  0  0
  7  8  1  0  0  0  0
  8  9  1  0  0  0  0
  9 10  1  0  0  0  0
 10 11  1  0  0  0  0
 11 12  1  0  0  0  0
  1 13  1  0  0  0  0
  1 14  1  0  0  0  0
  1 15  1  0  0  0  0
  3 16  1  0  0  0  0
  3 17  1  0  0  0  0
  4 18  1  0  0  0  0
  4 19  1  0  0  0  0
  6 20  1  0  0  0  0
  6 21  1  0  0  0  0
  7 22  1  0  0  0  0
  7 23  1  0  0  0  0
  9 24  1  0  0  0  0
  9 25  1  0  0  0  0
 10 26  1  0  0  0  0
 10 27  1  0  0  0  0
 12 28  1  0  0  0  0
 12 29  1  0  0  0  0
 12 30  1  0  0  0  0
M  END
> <id>
210859

> <casrn>
112-49-2

> <smiles (First)>
COCCOCCOCCOC

> <Molecular weight>
178.2261199951172

> <name>
Triethylene glycol dimethyl ether

> <Outcome>
0

> <Molecule (RDKit Mol) (InChI Code)>
InChI=1S/C8H18O4/c1-9-3-5-11-7-8-12-6-4-10-2/h3-8H2,1-2H3

> <reference>
ToxValDB

> <molecule_form>
not specified

$$$$

  Mrv1812 01171911372D          

 37 36  0  0  0  0            999 V2000
    0.0001    0.2899    0.0000 C   0  0  0  0  0  0  0  0  0  0  0  0
    0.7146   -0.1226    0.0000 O   0  0  0  0  0  0  0  0  0  0  0  0
    1.4290    0.2899    0.0000 C   0  0  0  0  0  0  0  0  0  0  0  0
    2.1435   -0.1226    0.0000 C   0  0  0  0  0  0  0  0  0  0  0  0
    2.8580    0.2899    0.0000 O   0  0  0  0  0  0  0  0  0  0  0  0
    3.5725   -0.1226    0.0000 C   0  0  0  0  0  0  0  0  0  0  0  0
    4.2869    0.2899    0.0000 C   0  0  0  0  0  0  0  0  0  0  0  0
    5.0014   -0.1226    0.0000 O   0  0  0  0  0  0  0  0  0  0  0  0
    5.7159    0.2899    0.0000 C   0  0  0  0  0  0  0  0  0  0  0  0
    6.4303   -0.1226    0.0000 C   0  0  0  0  0  0  0  0  0  0  0  0
    7.1448    0.2899    0.0000 O   0  0  0  0  0  0  0  0  0  0  0  0
    7.8593   -0.1226    0.0000 C   0  0  0  0  0  0  0  0  0  0  0  0
    8.5738    0.2899    0.0000 C   0  0  0  0  0  0  0  0  0  0  0  0
    9.2882   -0.1226    0.0000 O   0  0  0  0  0  0  0  0  0  0  0  0
   10.0027    0.2899    0.0000 C   0  0  0  0  0  0  0  0  0  0  0  0
    0.4126    1.0044    0.0000 H   0  0  0  0  0  0  0  0  0  0  0  0
   -0.7144    0.7024    0.0000 H   0  0  0  0  0  0  0  0  0  0  0  0
   -0.4124   -0.4246    0.0000 H   0  0  0  0  0  0  0  0  0  0  0  0
    1.7993    1.0271    0.0000 H   0  0  0  0  0  0  0  0  0  0  0  0
    1.0588    1.0271    0.0000 H   0  0  0  0  0  0  0  0  0  0  0  0
    1.7733   -0.8598    0.0000 H   0  0  0  0  0  0  0  0  0  0  0  0
    2.5138   -0.8598    0.0000 H   0  0  0  0  0  0  0  0  0  0  0  0
    3.2022   -0.8598    0.0000 H   0  0  0  0  0  0  0  0  0  0  0  0
    3.9427   -0.8598    0.0000 H   0  0  0  0  0  0  0  0  0  0  0  0
    4.6572    1.0271    0.0000 H   0  0  0  0  0  0  0  0  0  0  0  0
    3.9167    1.0271    0.0000 H   0  0  0  0  0  0  0  0  0  0  0  0
    6.0861    1.0271    0.0000 H   0  0  0  0  0  0  0  0  0  0  0  0
    5.3456    1.0271    0.0000 H   0  0  0  0  0  0  0  0  0  0  0  0
    6.0601   -0.8598    0.0000 H   0  0  0  0  0  0  0  0  0  0  0  0
    6.8006   -0.8598    0.0000 H   0  0  0  0  0  0  0  0  0  0  0  0
    7.4890   -0.8598    0.0000 H   0  0  0  0  0  0  0  0  0  0  0  0
    8.2295   -0.8598    0.0000 H   0  0  0  0  0  0  0  0  0  0  0  0
    8.9440    1.0271    0.0000 H   0  0  0  0  0  0  0  0  0  0  0  0
    8.2035    1.0271    0.0000 H   0  0  0  0  0  0  0  0  0  0  0  0
   10.4152   -0.4246    0.0000 H   0  0  0  0  0  0  0  0  0  0  0  0
   10.7172    0.7024    0.0000 H   0  0  0  0  0  0  0  0  0  0  0  0
    9.5902    1.0044    0.0000 H   0  0  0  0  0  0  0  0  0  0  0  0
  1  2  1  0  0  0  0
  2  3  1  0  0  0  0
  3  4  1  0  0  0  0
  4  5  1  0  0  0  0
  5  6  1  0  0  0  0
  6  7  1  0  0  0  0
  7  8  1  0  0  0  0
  8  9  1  0  0  0  0
  9 10  1  0  0  0  0
 10 11  1  0  0  0  0
 11 12  1  0  0  0  0
 12 13  1  0  0  0  0
 13 14  1  0  0  0  0
 14 15  1  0  0  0  0
  1 16  1  0  0  0  0
  1 17  1  0  0  0  0
  1 18  1  0  0  0  0
  3 19  1  0  0  0  0
  3 20  1  0  0  0  0
  4 21  1  0  0  0  0
  4 22  1  0  0  0  0
  6 23  1  0  0  0  0
  6 24  1  0  0  0  0
  7 25  1  0  0  0  0
  7 26  1  0  0  0  0
  9 27  1  0  0  0  0
  9 28  1  0  0  0  0
 10 29  1  0  0  0  0
 10 30  1  0  0  0  0
 12 31  1  0  0  0  0
 12 32  1  0  0  0  0
 13 33  1  0  0  0  0
 13 34  1  0  0  0  0
 15 35  1  0  0  0  0
 15 36  1  0  0  0  0
 15 37  1  0  0  0  0
M  END
> <id>
237359

> <casrn>
143-24-8

> <smiles (First)>
COCCOCCOCCOCCOC

> <Molecular weight>
222.2786865234375

> <name>
2,5,8,11,14-Pentaoxapentadecane

> <Outcome>
0

> <Molecule (RDKit Mol) (InChI Code)>
InChI=1S/C10H22O5/c1-11-3-5-13-7-9-15-10-8-14-6-4-12-2/h3-10H2,1-2H3

> <reference>
ToxValDB

> <molecule_form>
not specified

$$$$

  Mrv1812 01171911372D          

 65 67  0  0  0  0            999 V2000
    2.7852    1.5024    0.0000 C   0  0  0  0  0  0  0  0  0  0  0  0
    2.0707    1.9149    0.0000 C   0  0  0  0  0  0  0  0  0  0  0  0
    2.0707    2.7399    0.0000 C   0  0  0  0  0  0  0  0  0  0  0  0
    1.3562    1.5024    0.0000 C   0  0  0  0  0  0  0  0  0  0  0  0
    0.6418    1.9149    0.0000 C   0  0  0  0  0  0  0  0  0  0  0  0
   -0.0727    1.5024    0.0000 C   0  0  0  0  0  0  0  0  0  0  0  0
   -0.0727    0.6774    0.0000 C   0  0  0  0  0  0  0  0  0  0  0  0
   -0.7872    0.2649    0.0000 O   0  0  0  0  0  0  0  0  0  0  0  0
   -1.5016    0.6774    0.0000 P   0  0  0  0  0  0  0  0  0  0  0  0
   -1.0891    1.3919    0.0000 O   0  0  0  0  0  0  0  0  0  0  0  0
   -2.2161    1.0899    0.0000 O   0  0  0  0  0  0  0  0  0  0  0  0
   -2.2161    1.9149    0.0000 C   0  0  0  0  0  0  0  0  0  0  0  0
   -1.5016    2.3274    0.0000 C   0  0  0  0  0  0  0  0  0  0  0  0
   -1.5016    3.1524    0.0000 C   0  0  0  0  0  0  0  0  0  0  0  0
   -2.2161    3.5649    0.0000 C   0  0  0  0  0  0  0  0  0  0  0  0
   -2.9306    3.1524    0.0000 C   0  0  0  0  0  0  0  0  0  0  0  0
   -2.9306    2.3274    0.0000 C   0  0  0  0  0  0  0  0  0  0  0  0
   -2.2161    4.3899    0.0000 C   0  0  0  0  0  0  0  0  0  0  0  0
   -2.9306    4.8024    0.0000 C   0  0  0  0  0  0  0  0  0  0  0  0
   -1.5016    4.8024    0.0000 C   0  0  0  0  0  0  0  0  0  0  0  0
   -1.9141   -0.0371    0.0000 O   0  0  0  0  0  0  0  0  0  0  0  0
   -2.7391   -0.0371    0.0000 C   0  0  0  0  0  0  0  0  0  0  0  0
   -3.1516    0.6774    0.0000 C   0  0  0  0  0  0  0  0  0  0  0  0
   -3.9766    0.6774    0.0000 C   0  0  0  0  0  0  0  0  0  0  0  0
   -4.3891   -0.0371    0.0000 C   0  0  0  0  0  0  0  0  0  0  0  0
   -3.9766   -0.7515    0.0000 C   0  0  0  0  0  0  0  0  0  0  0  0
   -3.1516   -0.7515    0.0000 C   0  0  0  0  0  0  0  0  0  0  0  0
   -5.2141   -0.0371    0.0000 C   0  0  0  0  0  0  0  0  0  0  0  0
   -5.6266   -0.7515    0.0000 C   0  0  0  0  0  0  0  0  0  0  0  0
   -5.6266    0.6774    0.0000 C   0  0  0  0  0  0  0  0  0  0  0  0
    0.6418    0.2649    0.0000 C   0  0  0  0  0  0  0  0  0  0  0  0
    1.3562    0.6774    0.0000 C   0  0  0  0  0  0  0  0  0  0  0  0
    2.3727    0.7879    0.0000 H   0  0  0  0  0  0  0  0  0  0  0  0
    3.4997    1.0899    0.0000 H   0  0  0  0  0  0  0  0  0  0  0  0
    3.1977    2.2169    0.0000 H   0  0  0  0  0  0  0  0  0  0  0  0
    2.7852    2.3274    0.0000 H   0  0  0  0  0  0  0  0  0  0  0  0
    2.6541    3.3233    0.0000 H   0  0  0  0  0  0  0  0  0  0  0  0
    1.6582    3.4544    0.0000 H   0  0  0  0  0  0  0  0  0  0  0  0
    1.2738    2.5264    0.0000 H   0  0  0  0  0  0  0  0  0  0  0  0
    0.1450    2.5736    0.0000 H   0  0  0  0  0  0  0  0  0  0  0  0
   -0.7872    1.9149    0.0000 H   0  0  0  0  0  0  0  0  0  0  0  0
   -0.7872    2.7399    0.0000 H   0  0  0  0  0  0  0  0  0  0  0  0
   -1.0891    3.8669    0.0000 H   0  0  0  0  0  0  0  0  0  0  0  0
   -3.6451    3.5649    0.0000 H   0  0  0  0  0  0  0  0  0  0  0  0
   -3.6451    1.9149    0.0000 H   0  0  0  0  0  0  0  0  0  0  0  0
   -2.9306    3.9774    0.0000 H   0  0  0  0  0  0  0  0  0  0  0  0
   -2.3472    5.3858    0.0000 H   0  0  0  0  0  0  0  0  0  0  0  0
   -3.3431    5.5169    0.0000 H   0  0  0  0  0  0  0  0  0  0  0  0
   -3.7275    4.5889    0.0000 H   0  0  0  0  0  0  0  0  0  0  0  0
   -1.0891    4.0879    0.0000 H   0  0  0  0  0  0  0  0  0  0  0  0
   -0.7872    5.2149    0.0000 H   0  0  0  0  0  0  0  0  0  0  0  0
   -1.9141    5.5169    0.0000 H   0  0  0  0  0  0  0  0  0  0  0  0
   -2.7391    1.3919    0.0000 H   0  0  0  0  0  0  0  0  0  0  0  0
   -4.3891    1.3919    0.0000 H   0  0  0  0  0  0  0  0  0  0  0  0
   -4.3891   -1.4660    0.0000 H   0  0  0  0  0  0  0  0  0  0  0  0
   -2.7391   -1.4660    0.0000 H   0  0  0  0  0  0  0  0  0  0  0  0
   -4.8016   -0.7515    0.0000 H   0  0  0  0  0  0  0  0  0  0  0  0
   -6.2100   -0.1682    0.0000 H   0  0  0  0  0  0  0  0  0  0  0  0
   -6.3411   -1.1640    0.0000 H   0  0  0  0  0  0  0  0  0  0  0  0
   -5.4131   -1.5484    0.0000 H   0  0  0  0  0  0  0  0  0  0  0  0
   -4.9122    1.0899    0.0000 H   0  0  0  0  0  0  0  0  0  0  0  0
   -6.0391    1.3919    0.0000 H   0  0  0  0  0  0  0  0  0  0  0  0
   -6.3411    0.2649    0.0000 H   0  0  0  0  0  0  0  0  0  0  0  0
    0.6418   -0.5601    0.0000 H   0  0  0  0  0  0  0  0  0  0  0  0
    2.0707    0.2649    0.0000 H   0  0  0  0  0  0  0  0  0  0  0  0
  1  2  1  0  0  0  0
  2  3  1  0  0  0  0
  2  4  1  0  0  0  0
  5  4  4  0  0  0  0
  6  5  4  0  0  0  0
  7  6  4  0  0  0  0
  7  8  1  0  0  0  0
  8  9  1  0  0  0  0
  9 10  2  0  0  0  0
  9 11  1  0  0  0  0
 11 12  1  0  0  0  0
 13 12  4  0  0  0  0
 14 13  4  0  0  0  0
 15 14  4  0  0  0  0
 16 15  4  0  0  0  0
 17 16  4  0  0  0  0
 15 18  1  0  0  0  0
 18 19  1  0  0  0  0
 18 20  1  0  0  0  0
  9 21  1  0  0  0  0
 21 22  1  0  0  0  0
 23 22  4  0  0  0  0
 24 23  4  0  0  0  0
 25 24  4  0  0  0  0
 26 25  4  0  0  0  0
 27 26  4  0  0  0  0
 25 28  1  0  0  0  0
 28 29  1  0  0  0  0
 28 30  1  0  0  0  0
 31  7  4  0  0  0  0
 32 31  4  0  0  0  0
  4 32  4  0  0  0  0
 12 17  4  0  0  0  0
 22 27  4  0  0  0  0
  1 33  1  0  0  0  0
  1 34  1  0  0  0  0
  1 35  1  0  0  0  0
  2 36  1  0  0  0  0
  3 37  1  0  0  0  0
  3 38  1  0  0  0  0
  3 39  1  0  0  0  0
  5 40  1  0  0  0  0
  6 41  1  0  0  0  0
 13 42  1  0  0  0  0
 14 43  1  0  0  0  0
 16 44  1  0  0  0  0
 17 45  1  0  0  0  0
 18 46  1  0  0  0  0
 19 47  1  0  0  0  0
 19 48  1  0  0  0  0
 19 49  1  0  0  0  0
 20 50  1  0  0  0  0
 20 51  1  0  0  0  0
 20 52  1  0  0  0  0
 23 53  1  0  0  0  0
 24 54  1  0  0  0  0
 26 55  1  0  0  0  0
 27 56  1  0  0  0  0
 28 57  1  0  0  0  0
 29 58  1  0  0  0  0
 29 59  1  0  0  0  0
 29 60  1  0  0  0  0
 30 61  1  0  0  0  0
 30 62  1  0  0  0  0
 30 63  1  0  0  0  0
 31 64  1  0  0  0  0
 32 65  1  0  0  0  0
M  END
> <id>
304733

> <casrn>
68937-41-7

> <smiles (First)>
CC(C)c1ccc(O[P](=O)(Oc2ccc(cc2)C(C)C)Oc3ccc(cc3)C(C)C)cc1

> <Molecular weight>
452.52227783203125

> <name>
Triphenyl phosphates isopropylated

> <Outcome>
0

> <Molecule (RDKit Mol) (InChI Code)>
InChI=1S/C27H33O4P/c1-19(2)22-7-13-25(14-8-22)29-32(28,30-26-15-9-23(10-16-26)20(3)4)31-27-17-11-24(12-18-27)21(5)6/h7-21H,1-6H3

> <reference>
ToxValDB

> <molecule_form>
not specified

$$$$

  Mrv1812 01171911372D          

 36 35  0  0  0  0            999 V2000
   -2.3900   -1.0218    0.0000 C   0  0  0  0  0  0  0  0  0  0  0  0
   -1.5798   -0.8659    0.0000 C   0  0  0  0  0  0  0  0  0  0  0  0
   -1.0397   -1.4896    0.0000 N   0  0  0  0  0  0  0  0  0  0  0  0
   -1.3098   -2.2691    0.0000 C   0  0  0  0  0  0  0  0  0  0  0  0
   -2.1199   -2.4250    0.0000 C   0  0  0  0  0  0  0  0  0  0  0  0
   -0.2296   -1.3337    0.0000 C   0  0  0  0  0  0  0  0  0  0  0  0
    0.0404   -0.5541    0.0000 S   0  0  0  0  0  0  0  0  0  0  0  0
    0.3105   -1.9573    0.0000 S   0  0  0  0  0  0  0  0  0  0  0  0
    1.1206   -1.8014    0.0000 S   0  0  0  0  0  0  0  0  0  0  0  0
    1.6607   -2.4250    0.0000 C   0  0  0  0  0  0  0  0  0  0  0  0
    1.3907   -3.2046    0.0000 S   0  0  0  0  0  0  0  0  0  0  0  0
    2.4709   -2.2691    0.0000 N   0  0  0  0  0  0  0  0  0  0  0  0
    3.0109   -2.8928    0.0000 C   0  0  0  0  0  0  0  0  0  0  0  0
    3.8211   -2.7369    0.0000 C   0  0  0  0  0  0  0  0  0  0  0  0
    2.7409   -1.4896    0.0000 C   0  0  0  0  0  0  0  0  0  0  0  0
    3.5510   -1.3337    0.0000 C   0  0  0  0  0  0  0  0  0  0  0  0
   -2.5459   -0.2117    0.0000 H   0  0  0  0  0  0  0  0  0  0  0  0
   -3.2001   -1.1778    0.0000 H   0  0  0  0  0  0  0  0  0  0  0  0
   -2.2340   -1.8320    0.0000 H   0  0  0  0  0  0  0  0  0  0  0  0
   -0.9886   -0.2905    0.0000 H   0  0  0  0  0  0  0  0  0  0  0  0
   -1.6884   -0.0481    0.0000 H   0  0  0  0  0  0  0  0  0  0  0  0
   -1.1070   -3.0688    0.0000 H   0  0  0  0  0  0  0  0  0  0  0  0
   -0.5472   -2.5840    0.0000 H   0  0  0  0  0  0  0  0  0  0  0  0
   -2.9280   -2.2591    0.0000 H   0  0  0  0  0  0  0  0  0  0  0  0
   -2.5825   -3.1081    0.0000 H   0  0  0  0  0  0  0  0  0  0  0  0
   -1.6658   -3.1138    0.0000 H   0  0  0  0  0  0  0  0  0  0  0  0
    2.4198   -3.4682    0.0000 H   0  0  0  0  0  0  0  0  0  0  0  0
    3.1195   -3.7106    0.0000 H   0  0  0  0  0  0  0  0  0  0  0  0
    3.9770   -3.5470    0.0000 H   0  0  0  0  0  0  0  0  0  0  0  0
    4.6312   -2.5809    0.0000 H   0  0  0  0  0  0  0  0  0  0  0  0
    3.6652   -1.9267    0.0000 H   0  0  0  0  0  0  0  0  0  0  0  0
    2.5381   -0.6899    0.0000 H   0  0  0  0  0  0  0  0  0  0  0  0
    1.9784   -1.1747    0.0000 H   0  0  0  0  0  0  0  0  0  0  0  0
    4.3592   -1.4996    0.0000 H   0  0  0  0  0  0  0  0  0  0  0  0
    4.0136   -0.6506    0.0000 H   0  0  0  0  0  0  0  0  0  0  0  0
    3.0970   -0.6449    0.0000 H   0  0  0  0  0  0  0  0  0  0  0  0
  1  2  1  0  0  0  0
  2  3  1  0  0  0  0
  3  4  1  0  0  0  0
  4  5  1  0  0  0  0
  3  6  1  0  0  0  0
  6  7  2  0  0  0  0
  6  8  1  0  0  0  0
  8  9  1  0  0  0  0
  9 10  1  0  0  0  0
 10 11  2  0  0  0  0
 10 12  1  0  0  0  0
 12 13  1  0  0  0  0
 13 14  1  0  0  0  0
 12 15  1  0  0  0  0
 15 16  1  0  0  0  0
  1 17  1  0  0  0  0
  1 18  1  0  0  0  0
  1 19  1  0  0  0  0
  2 20  1  0  0  0  0
  2 21  1  0  0  0  0
  4 22  1  0  0  0  0
  4 23  1  0  0  0  0
  5 24  1  0  0  0  0
  5 25  1  0  0  0  0
  5 26  1  0  0  0  0
 13 27  1  0  0  0  0
 13 28  1  0  0  0  0
 14 29  1  0  0  0  0
 14 30  1  0  0  0  0
 14 31  1  0  0  0  0
 15 32  1  0  0  0  0
 15 33  1  0  0  0  0
 16 34  1  0  0  0  0
 16 35  1  0  0  0  0
 16 36  1  0  0  0  0
M  END
> <id>
352943

> <casrn>
97-77-8

> <smiles (First)>
CCN(CC)C(=S)SSC(=S)N(CC)CC

> <Molecular weight>
296.5391845703125

> <name>
Disulfiram

> <Outcome>
1

> <Molecule (RDKit Mol) (InChI Code)>
InChI=1S/C10H20N2S4/c1-5-11(6-2)9(13)15-16-10(14)12(7-3)8-4/h5-8H2,1-4H3

> <reference>
ToxValDB

> <molecule_form>
not specified

$$$$

  Mrv1812 01171911372D          

 17 17  0  0  0  0            999 V2000
    1.4660    0.3982    0.0000 C   0  0  0  0  0  0  0  0  0  0  0  0
    0.6814    0.1432    0.0000 N   0  0  0  0  0  0  0  0  0  0  0  0
    0.0140    0.6281    0.0000 C   0  0  0  0  0  0  0  0  0  0  0  0
   -0.6535    0.1432    0.0000 C   0  0  0  0  0  0  0  0  0  0  0  0
   -0.3985   -0.6414    0.0000 C   0  0  0  0  0  0  0  0  0  0  0  0
    0.4265   -0.6414    0.0000 C   0  0  0  0  0  0  0  0  0  0  0  0
    1.7210   -0.3865    0.0000 H   0  0  0  0  0  0  0  0  0  0  0  0
    2.2506    0.6531    0.0000 H   0  0  0  0  0  0  0  0  0  0  0  0
    1.2111    1.1828    0.0000 H   0  0  0  0  0  0  0  0  0  0  0  0
    0.4013    1.3566    0.0000 H   0  0  0  0  0  0  0  0  0  0  0  0
   -0.3734    1.3566    0.0000 H   0  0  0  0  0  0  0  0  0  0  0  0
   -1.2266    0.7367    0.0000 H   0  0  0  0  0  0  0  0  0  0  0  0
   -1.4659   -0.0000    0.0000 H   0  0  0  0  0  0  0  0  0  0  0  0
   -1.1400   -1.0031    0.0000 H   0  0  0  0  0  0  0  0  0  0  0  0
   -0.5134   -1.4584    0.0000 H   0  0  0  0  0  0  0  0  0  0  0  0
    0.5413   -1.4584    0.0000 H   0  0  0  0  0  0  0  0  0  0  0  0
    1.1680   -1.0031    0.0000 H   0  0  0  0  0  0  0  0  0  0  0  0
  1  2  1  0  0  0  0
  3  2  1  0  0  0  0
  4  3  1  0  0  0  0
  5  4  1  0  0  0  0
  6  5  1  0  0  0  0
  2  6  1  0  0  0  0
  1  7  1  0  0  0  0
  1  8  1  0  0  0  0
  1  9  1  0  0  0  0
  3 10  1  0  0  0  0
  3 11  1  0  0  0  0
  4 12  1  0  0  0  0
  4 13  1  0  0  0  0
  5 14  1  0  0  0  0
  5 15  1  0  0  0  0
  6 16  1  0  0  0  0
  6 17  1  0  0  0  0
M  END
> <id>
905552

> <casrn>
120-94-5

> <smiles (First)>
CN1CCCC1

> <Molecular weight>
85.14753723144531

> <name>
N-Methylpyrrolidine

> <Outcome>
1

> <Molecule (RDKit Mol) (InChI Code)>
InChI=1S/C5H11N/c1-6-4-2-3-5-6/h2-5H2,1H3

> <reference>
ToxValDB

> <molecule_form>
not specified

$$$$

  Mrv1812 01171911372D          

 20 19  0  0  0  0            999 V2000
   -0.4370    0.7570    0.0000 C   0  0  0  0  0  0  0  0  0  0  0  0
    0.2775    1.1695    0.0000 C   0  0  0  0  0  0  0  0  0  0  0  0
    0.2775    1.9945    0.0000 O   0  0  0  0  0  0  0  0  0  0  0  0
    0.9919    0.7570    0.0000 C   0  0  0  0  0  0  0  0  0  0  0  0
    1.7064    1.1695    0.0000 C   0  0  0  0  0  0  0  0  0  0  0  0
    1.7064    1.9945    0.0000 O   0  0  0  0  0  0  0  0  0  0  0  0
    2.4209    0.7570    0.0000 O   0  0  0  0  0  0  0  0  0  0  0  0
    3.1353    1.1695    0.0000 C   0  0  0  0  0  0  0  0  0  0  0  0
    3.8498    0.7570    0.0000 C   0  0  0  0  0  0  0  0  0  0  0  0
    4.5643    1.1695    0.0000 C   0  0  0  0  0  0  0  0  0  0  0  0
   -0.8495    1.4715    0.0000 H   0  0  0  0  0  0  0  0  0  0  0  0
   -1.1515    0.3445    0.0000 H   0  0  0  0  0  0  0  0  0  0  0  0
   -0.0245    0.0425    0.0000 H   0  0  0  0  0  0  0  0  0  0  0  0
    0.6217    0.0198    0.0000 H   0  0  0  0  0  0  0  0  0  0  0  0
    1.3622    0.0198    0.0000 H   0  0  0  0  0  0  0  0  0  0  0  0
    3.5056    1.9067    0.0000 H   0  0  0  0  0  0  0  0  0  0  0  0
    2.7651    1.9067    0.0000 H   0  0  0  0  0  0  0  0  0  0  0  0
    3.8498   -0.0680    0.0000 H   0  0  0  0  0  0  0  0  0  0  0  0
    5.2787    0.7570    0.0000 H   0  0  0  0  0  0  0  0  0  0  0  0
    4.5643    1.9945    0.0000 H   0  0  0  0  0  0  0  0  0  0  0  0
  1  2  1  0  0  0  0
  2  3  2  0  0  0  0
  2  4  1  0  0  0  0
  4  5  1  0  0  0  0
  5  6  2  0  0  0  0
  5  7  1  0  0  0  0
  7  8  1  0  0  0  0
  8  9  1  0  0  0  0
  9 10  2  0  0  0  0
  1 11  1  0  0  0  0
  1 12  1  0  0  0  0
  1 13  1  0  0  0  0
  4 14  1  0  0  0  0
  4 15  1  0  0  0  0
  8 16  1  0  0  0  0
  8 17  1  0  0  0  0
  9 18  1  0  0  0  0
 10 19  1  0  0  0  0
 10 20  1  0  0  0  0
M  END
> <id>
209113

> <casrn>
1118-84-9

> <smiles (First)>
CC(=O)CC(=O)OCC=C

> <Molecular weight>
142.15249633789062

> <name>
Allyl acetoacetate

> <Outcome>
0

> <Molecule (RDKit Mol) (InChI Code)>
InChI=1S/C7H10O3/c1-3-4-10-7(9)5-6(2)8/h3H,1,4-5H2,2H3

> <reference>
ToxValDB

> <molecule_form>
not specified

$$$$

  Mrv1812 01171911372D          

 25 24  0  0  0  0            999 V2000
    2.7288   -1.6613    0.0000 C   0  0  0  0  0  0  0  0  0  0  0  0
    2.7288   -0.8363    0.0000 C   0  0  0  0  0  0  0  0  0  0  0  0
    2.0143   -0.4238    0.0000 O   0  0  0  0  0  0  0  0  0  0  0  0
    2.0143    0.4012    0.0000 P   0  0  0  0  0  0  0  0  0  0  0  0
    1.2999    0.8137    0.0000 O   0  0  0  0  0  0  0  0  0  0  0  0
    1.2999    1.6387    0.0000 C   0  0  0  0  0  0  0  0  0  0  0  0
    0.5854    2.0512    0.0000 C   0  0  0  0  0  0  0  0  0  0  0  0
    2.7288    0.8137    0.0000 O   0  0  0  0  0  0  0  0  0  0  0  0
    2.7288    1.6387    0.0000 C   0  0  0  0  0  0  0  0  0  0  0  0
    3.4433    2.0512    0.0000 C   0  0  0  0  0  0  0  0  0  0  0  0
    1.9038   -1.6613    0.0000 H   0  0  0  0  0  0  0  0  0  0  0  0
    2.7288   -2.4863    0.0000 H   0  0  0  0  0  0  0  0  0  0  0  0
    3.5538   -1.6613    0.0000 H   0  0  0  0  0  0  0  0  0  0  0  0
    3.5524   -0.7883    0.0000 H   0  0  0  0  0  0  0  0  0  0  0  0
    3.1821   -0.1470    0.0000 H   0  0  0  0  0  0  0  0  0  0  0  0
    2.1235    1.6867    0.0000 H   0  0  0  0  0  0  0  0  0  0  0  0
    1.7532    2.3280    0.0000 H   0  0  0  0  0  0  0  0  0  0  0  0
    0.9979    2.7657    0.0000 H   0  0  0  0  0  0  0  0  0  0  0  0
   -0.1291    2.4637    0.0000 H   0  0  0  0  0  0  0  0  0  0  0  0
    0.1729    1.3367    0.0000 H   0  0  0  0  0  0  0  0  0  0  0  0
    2.5469    2.4434    0.0000 H   0  0  0  0  0  0  0  0  0  0  0  0
    3.4433    1.2262    0.0000 H   0  0  0  0  0  0  0  0  0  0  0  0
    4.2402    1.8377    0.0000 H   0  0  0  0  0  0  0  0  0  0  0  0
    3.8558    2.7657    0.0000 H   0  0  0  0  0  0  0  0  0  0  0  0
    2.8599    2.6346    0.0000 H   0  0  0  0  0  0  0  0  0  0  0  0
  1  2  1  0  0  0  0
  2  3  1  0  0  0  0
  3  4  1  0  0  0  0
  4  5  1  0  0  0  0
  5  6  1  0  0  0  0
  6  7  1  0  0  0  0
  4  8  1  0  0  0  0
  8  9  1  0  0  0  0
  9 10  1  0  0  0  0
  1 11  1  0  0  0  0
  1 12  1  0  0  0  0
  1 13  1  0  0  0  0
  2 14  1  0  0  0  0
  2 15  1  0  0  0  0
  6 16  1  0  0  0  0
  6 17  1  0  0  0  0
  7 18  1  0  0  0  0
  7 19  1  0  0  0  0
  7 20  1  0  0  0  0
  9 21  1  0  0  0  0
  9 22  1  0  0  0  0
 10 23  1  0  0  0  0
 10 24  1  0  0  0  0
 10 25  1  0  0  0  0
M  END
> <id>
219337; 219351

> <casrn>
122-52-1

> <smiles (First)>
CCOP(OCC)OCC

> <Molecular weight>
166.15525817871094

> <name>
Triethyl phosphite

> <Outcome>
1

> <Molecule (RDKit Mol) (InChI Code)>
InChI=1S/C6H15O3P/c1-4-7-10(8-5-2)9-6-3/h4-6H2,1-3H3

> <reference>
ToxValDB

> <molecule_form>
not specified

$$$$

  Mrv1812 01171911372D          

 14 14  0  0  0  0            999 V2000
    2.1829    0.2652    0.0000 O   0  0  0  0  0  0  0  0  0  0  0  0
    1.4684    0.6777    0.0000 N   0  0  0  0  0  0  0  0  0  0  0  0
    1.4684    1.5027    0.0000 O   0  0  0  0  0  0  0  0  0  0  0  0
    0.7540    0.2652    0.0000 C   0  0  0  0  0  0  0  0  0  0  0  0
    0.0395    0.6777    0.0000 C   0  0  0  0  0  0  0  0  0  0  0  0
   -0.6750    0.2652    0.0000 C   0  0  0  0  0  0  0  0  0  0  0  0
   -0.6750   -0.5598    0.0000 C   0  0  0  0  0  0  0  0  0  0  0  0
    0.0395   -0.9723    0.0000 C   0  0  0  0  0  0  0  0  0  0  0  0
    0.7540   -0.5598    0.0000 C   0  0  0  0  0  0  0  0  0  0  0  0
    1.4684   -0.9723    0.0000 Cl  0  0  0  0  0  0  0  0  0  0  0  0
    0.0395    1.5027    0.0000 H   0  0  0  0  0  0  0  0  0  0  0  0
   -1.3895    0.6777    0.0000 H   0  0  0  0  0  0  0  0  0  0  0  0
   -1.3895   -0.9723    0.0000 H   0  0  0  0  0  0  0  0  0  0  0  0
    0.0395   -1.7973    0.0000 H   0  0  0  0  0  0  0  0  0  0  0  0
  1  2  2  0  0  0  0
  2  3  2  0  0  0  0
  2  4  1  0  0  0  0
  5  4  4  0  0  0  0
  6  5  4  0  0  0  0
  7  6  4  0  0  0  0
  8  7  4  0  0  0  0
  9  8  4  0  0  0  0
  9 10  1  0  0  0  0
  4  9  4  0  0  0  0
  5 11  1  0  0  0  0
  6 12  1  0  0  0  0
  7 13  1  0  0  0  0
  8 14  1  0  0  0  0
M  END
> <id>
337319

> <casrn>
88-73-3

> <smiles (First)>
[O-][N+](=O)c1ccccc1Cl

> <Molecular weight>
157.55445861816406

> <name>
1-Chloro-2-nitrobenzene

> <Outcome>
1

> <Molecule (RDKit Mol) (InChI Code)>
InChI=1S/C6H4ClNO2/c7-5-3-1-2-4-6(5)8(9)10/h1-4H

> <reference>
ToxValDB

> <molecule_form>
not specified

$$$$

  Mrv1812 01171911372D          

  8  7  0  0  0  0            999 V2000
    0.4125   -1.2375    0.0000 F   0  0  0  0  0  0  0  0  0  0  0  0
    0.4125   -0.4125    0.0000 C   0  0  0  0  0  0  0  0  0  0  0  0
    1.2375   -0.4125    0.0000 F   0  0  0  0  0  0  0  0  0  0  0  0
   -0.4125   -0.4125    0.0000 F   0  0  0  0  0  0  0  0  0  0  0  0
    0.4125    0.4125    0.0000 C   0  0  0  0  0  0  0  0  0  0  0  0
    0.4125    1.2375    0.0000 Cl  0  0  0  0  0  0  0  0  0  0  0  0
    1.2375    0.4125    0.0000 Cl  0  0  0  0  0  0  0  0  0  0  0  0
   -0.4125    0.4125    0.0000 Cl  0  0  0  0  0  0  0  0  0  0  0  0
  1  2  1  0  0  0  0
  2  3  1  0  0  0  0
  2  4  1  0  0  0  0
  2  5  1  0  0  0  0
  5  6  1  0  0  0  0
  5  7  1  0  0  0  0
  5  8  1  0  0  0  0
M  END
> <id>
259429

> <casrn>
354-58-5

> <smiles (First)>
FC(F)(F)C(Cl)(Cl)Cl

> <Molecular weight>
187.3756103515625

> <name>
1,1,1-Trichloro-2,2,2-trifluoroethane

> <Outcome>
0

> <Molecule (RDKit Mol) (InChI Code)>
InChI=1S/C2Cl3F3/c3-1(4,5)2(6,7)8

> <reference>
ToxValDB

> <molecule_form>
not specified

$$$$

  Mrv1812 01171911372D          

 10  9  0  0  0  0            999 V2000
    1.3411   -0.3243    0.0000 C   0  0  0  0  0  0  0  0  0  0  0  0
    0.5161   -0.3243    0.0000 C   0  0  0  0  0  0  0  0  0  0  0  0
    0.1036   -1.0387    0.0000 O   0  0  0  0  0  0  0  0  0  0  0  0
    0.1036    0.3902    0.0000 C   0  0  0  0  0  0  0  0  0  0  0  0
   -0.7214    0.3902    0.0000 Cl  0  0  0  0  0  0  0  0  0  0  0  0
    1.3411   -1.1493    0.0000 H   0  0  0  0  0  0  0  0  0  0  0  0
    2.1661   -0.3243    0.0000 H   0  0  0  0  0  0  0  0  0  0  0  0
    1.3411    0.5007    0.0000 H   0  0  0  0  0  0  0  0  0  0  0  0
    0.7929    0.8436    0.0000 H   0  0  0  0  0  0  0  0  0  0  0  0
    0.1516    1.2138    0.0000 H   0  0  0  0  0  0  0  0  0  0  0  0
  1  2  1  0  0  0  0
  2  3  2  0  0  0  0
  2  4  1  0  0  0  0
  4  5  1  0  0  0  0
  1  6  1  0  0  0  0
  1  7  1  0  0  0  0
  1  8  1  0  0  0  0
  4  9  1  0  0  0  0
  4 10  1  0  0  0  0
M  END
> <id>
326648; 911366

> <casrn>
78-95-5

> <smiles (First)>
CC(=O)CCl

> <Molecular weight>
92.52420043945312

> <name>
1-Chloropropan-2-one

> <Outcome>
1

> <Molecule (RDKit Mol) (InChI Code)>
InChI=1S/C3H5ClO/c1-3(5)2-4/h2H2,1H3

> <reference>
ToxValDB

> <molecule_form>
not specified

$$$$

  Mrv1812 01171911372D          

 45 47  0  0  0  0            999 V2000
   -2.4110    0.7647    0.0000 C   0  0  0  0  0  0  0  0  0  0  0  0
   -1.6966    0.3522    0.0000 C   0  0  0  0  0  0  0  0  0  0  0  0
   -0.9821    0.7647    0.0000 C   0  0  0  0  0  0  0  0  0  0  0  0
   -0.7759   -0.0603    0.0000 C   0  0  0  0  0  0  0  0  0  0  0  0
   -0.9821   -0.8853    0.0000 C   0  0  0  0  0  0  0  0  0  0  0  0
   -0.2676   -0.4728    0.0000 C   0  0  0  0  0  0  0  0  0  0  0  0
   -0.2676    0.3522    0.0000 C   0  0  0  0  0  0  0  0  0  0  0  0
    0.4468    0.7647    0.0000 C   0  0  0  0  0  0  0  0  0  0  0  0
    1.1613    0.3522    0.0000 C   0  0  0  0  0  0  0  0  0  0  0  0
    1.8758    0.7647    0.0000 C   0  0  0  0  0  0  0  0  0  0  0  0
    1.8758    1.5897    0.0000 C   0  0  0  0  0  0  0  0  0  0  0  0
    1.1613    2.0022    0.0000 C   0  0  0  0  0  0  0  0  0  0  0  0
    1.1613    2.8272    0.0000 O   0  0  0  0  0  0  0  0  0  0  0  0
    0.4468    1.5897    0.0000 C   0  0  0  0  0  0  0  0  0  0  0  0
   -1.6966   -0.4728    0.0000 C   0  0  0  0  0  0  0  0  0  0  0  0
   -1.9787   -1.2481    0.0000 C   0  0  0  0  0  0  0  0  0  0  0  0
   -2.5090   -0.3295    0.0000 C   0  0  0  0  0  0  0  0  0  0  0  0
   -1.9985    1.4792    0.0000 H   0  0  0  0  0  0  0  0  0  0  0  0
   -3.1255    1.1772    0.0000 H   0  0  0  0  0  0  0  0  0  0  0  0
   -2.8235    0.0502    0.0000 H   0  0  0  0  0  0  0  0  0  0  0  0
   -1.6966    1.1772    0.0000 H   0  0  0  0  0  0  0  0  0  0  0  0
   -0.5696    1.4792    0.0000 H   0  0  0  0  0  0  0  0  0  0  0  0
   -1.5216    0.2925    0.0000 H   0  0  0  0  0  0  0  0  0  0  0  0
   -1.5216   -0.4132    0.0000 H   0  0  0  0  0  0  0  0  0  0  0  0
   -0.9821   -1.7103    0.0000 H   0  0  0  0  0  0  0  0  0  0  0  0
    0.1857   -1.1621    0.0000 H   0  0  0  0  0  0  0  0  0  0  0  0
    0.5560   -0.5208    0.0000 H   0  0  0  0  0  0  0  0  0  0  0  0
   -0.2676    1.1772    0.0000 H   0  0  0  0  0  0  0  0  0  0  0  0
    0.4468   -0.0603    0.0000 H   0  0  0  0  0  0  0  0  0  0  0  0
    1.3046   -0.4603    0.0000 H   0  0  0  0  0  0  0  0  0  0  0  0
    1.7933   -0.1781    0.0000 H   0  0  0  0  0  0  0  0  0  0  0  0
    2.6349    0.4416    0.0000 H   0  0  0  0  0  0  0  0  0  0  0  0
    2.6602    1.0204    0.0000 H   0  0  0  0  0  0  0  0  0  0  0  0
    2.5402    2.0787    0.0000 H   0  0  0  0  0  0  0  0  0  0  0  0
    2.0518    2.3957    0.0000 H   0  0  0  0  0  0  0  0  0  0  0  0
    1.8758    2.4147    0.0000 H   0  0  0  0  0  0  0  0  0  0  0  0
    0.7488    3.5417    0.0000 H   0  0  0  0  0  0  0  0  0  0  0  0
    0.3036    2.4022    0.0000 H   0  0  0  0  0  0  0  0  0  0  0  0
   -0.1851    2.1200    0.0000 H   0  0  0  0  0  0  0  0  0  0  0  0
   -2.7427   -0.9367    0.0000 H   0  0  0  0  0  0  0  0  0  0  0  0
   -2.3189   -1.9997    0.0000 H   0  0  0  0  0  0  0  0  0  0  0  0
   -1.2406   -1.6165    0.0000 H   0  0  0  0  0  0  0  0  0  0  0  0
   -2.0942    0.3836    0.0000 H   0  0  0  0  0  0  0  0  0  0  0  0
   -3.3232   -0.4627    0.0000 H   0  0  0  0  0  0  0  0  0  0  0  0
   -2.1031   -1.0478    0.0000 H   0  0  0  0  0  0  0  0  0  0  0  0
  1  2  1  0  0  0  0
  3  2  1  0  0  0  0
  3  4  1  0  0  0  0
  4  5  1  0  0  0  0
  5  6  1  0  0  0  0
  6  7  1  0  0  0  0
  7  8  1  0  0  0  0
  9  8  1  0  0  0  0
 10  9  1  0  0  0  0
 11 10  1  0  0  0  0
 12 11  1  0  0  0  0
 12 13  1  0  0  0  0
 14 12  1  0  0  0  0
 15  5  1  0  0  0  0
 15 16  1  0  0  0  0
 15 17  1  0  0  0  0
  2 15  1  0  0  0  0
  7  3  1  0  0  0  0
  8 14  1  0  0  0  0
  1 18  1  0  0  0  0
  1 19  1  0  0  0  0
  1 20  1  0  0  0  0
  2 21  1  0  0  0  0
  3 22  1  0  0  0  0
  4 23  1  0  0  0  0
  4 24  1  0  0  0  0
  5 25  1  0  0  0  0
  6 26  1  0  0  0  0
  6 27  1  0  0  0  0
  7 28  1  0  0  0  0
  8 29  1  0  0  0  0
  9 30  1  0  0  0  0
  9 31  1  0  0  0  0
 10 32  1  0  0  0  0
 10 33  1  0  0  0  0
 11 34  1  0  0  0  0
 11 35  1  0  0  0  0
 12 36  1  0  0  0  0
 13 37  1  0  0  0  0
 14 38  1  0  0  0  0
 14 39  1  0  0  0  0
 16 40  1  0  0  0  0
 16 41  1  0  0  0  0
 16 42  1  0  0  0  0
 17 43  1  0  0  0  0
 17 44  1  0  0  0  0
 17 45  1  0  0  0  0
M  END
> <id>
258750

> <casrn>
3407-42-9

> <smiles (First)>
CC1C2CC(CC2C3CCCC(O)C3)C1(C)C

> <Molecular weight>
236.39292907714844

> <name>
3-(5,5,6-Trimethylbicyclo[2.2.1]hept-2-yl)cyclohexanol

> <Outcome>
0

> <Molecule (RDKit Mol) (InChI Code)>
InChI=1S/C16H28O/c1-10-14-8-12(16(10,2)3)9-15(14)11-5-4-6-13(17)7-11/h10-15,17H,4-9H2,1-3H3

> <reference>
ToxValDB

> <molecule_form>
not specified

$$$$

  Mrv1812 01171911372D          

  6  5  0  0  0  0            999 V2000
    1.1822   -0.5082    0.0000 Cl  0  0  0  0  0  0  0  0  0  0  0  0
    0.7697    0.2063    0.0000 C   0  0  0  0  0  0  0  0  0  0  0  0
   -0.0553    0.2063    0.0000 C   0  0  0  0  0  0  0  0  0  0  0  0
    1.1822    0.9208    0.0000 H   0  0  0  0  0  0  0  0  0  0  0  0
   -0.4678    0.9208    0.0000 H   0  0  0  0  0  0  0  0  0  0  0  0
   -0.4678   -0.5082    0.0000 H   0  0  0  0  0  0  0  0  0  0  0  0
  1  2  1  0  0  0  0
  2  3  2  0  0  0  0
  2  4  1  0  0  0  0
  3  5  1  0  0  0  0
  3  6  1  0  0  0  0
M  END
> <id>
314292

> <casrn>
75-01-4

> <smiles (First)>
ClC=C

> <Molecular weight>
62.49821853637695

> <name>
Vinyl chloride

> <Outcome>
0

> <Molecule (RDKit Mol) (InChI Code)>
InChI=1S/C2H3Cl/c1-2-3/h2H,1H2

> <reference>
ToxValDB

> <molecule_form>
not specified

$$$$

  Mrv1812 01171911372D          

 16 16  0  0  0  0            999 V2000
    1.4289    0.8250    0.0000 N   0  0  0  0  0  0  0  0  0  0  0  0
    0.7145    0.4125    0.0000 C   0  0  0  0  0  0  0  0  0  0  0  0
    0.0000    0.8250    0.0000 C   0  0  0  0  0  0  0  0  0  0  0  0
   -0.7145    0.4125    0.0000 C   0  0  0  0  0  0  0  0  0  0  0  0
   -0.7145   -0.4125    0.0000 C   0  0  0  0  0  0  0  0  0  0  0  0
   -1.4289   -0.8250    0.0000 N   0  0  0  0  0  0  0  0  0  0  0  0
   -0.0000   -0.8250    0.0000 C   0  0  0  0  0  0  0  0  0  0  0  0
    0.7145   -0.4125    0.0000 C   0  0  0  0  0  0  0  0  0  0  0  0
    2.1434    0.4125    0.0000 H   0  0  0  0  0  0  0  0  0  0  0  0
    1.4289    1.6500    0.0000 H   0  0  0  0  0  0  0  0  0  0  0  0
    0.0000    1.6500    0.0000 H   0  0  0  0  0  0  0  0  0  0  0  0
   -1.4289    0.8250    0.0000 H   0  0  0  0  0  0  0  0  0  0  0  0
   -2.1434   -0.4125    0.0000 H   0  0  0  0  0  0  0  0  0  0  0  0
   -1.4289   -1.6500    0.0000 H   0  0  0  0  0  0  0  0  0  0  0  0
   -0.0000   -1.6500    0.0000 H   0  0  0  0  0  0  0  0  0  0  0  0
    1.4289   -0.8250    0.0000 H   0  0  0  0  0  0  0  0  0  0  0  0
  1  2  1  0  0  0  0
  3  2  4  0  0  0  0
  4  3  4  0  0  0  0
  5  4  4  0  0  0  0
  5  6  1  0  0  0  0
  7  5  4  0  0  0  0
  8  7  4  0  0  0  0
  2  8  4  0  0  0  0
  1  9  1  0  0  0  0
  1 10  1  0  0  0  0
  3 11  1  0  0  0  0
  4 12  1  0  0  0  0
  6 13  1  0  0  0  0
  6 14  1  0  0  0  0
  7 15  1  0  0  0  0
  8 16  1  0  0  0  0
M  END
> <id>
201472

> <casrn>
106-50-3

> <smiles (First)>
Nc1ccc(N)cc1

> <Molecular weight>
108.14112091064453

> <name>
1,4-Benzenediamine

> <Outcome>
1

> <Molecule (RDKit Mol) (InChI Code)>
InChI=1S/C6H8N2/c7-5-1-2-6(8)4-3-5/h1-4H,7-8H2

> <reference>
ToxValDB

> <molecule_form>
not specified

$$$$

  Mrv1812 01171911372D          

 52 53  0  0  0  0            999 V2000
   -2.5974   -0.4914    0.0000 C   0  0  0  0  0  0  0  0  0  0  0  0
   -2.1849   -1.2059    0.0000 C   0  0  0  0  0  0  0  0  0  0  0  0
   -1.3599   -1.2059    0.0000 C   0  0  0  0  0  0  0  0  0  0  0  0
   -0.9474   -1.9204    0.0000 C   0  0  0  0  0  0  0  0  0  0  0  0
   -0.1224   -1.9204    0.0000 C   0  0  0  0  0  0  0  0  0  0  0  0
    0.2901   -1.2059    0.0000 C   0  0  0  0  0  0  0  0  0  0  0  0
    1.1151   -1.2059    0.0000 C   0  0  0  0  0  0  0  0  0  0  0  0
    0.2901   -2.6348    0.0000 C   0  0  0  0  0  0  0  0  0  0  0  0
    1.1151   -2.6348    0.0000 O   0  0  0  0  0  0  0  0  0  0  0  0
    1.5276   -3.3493    0.0000 P   0  0  0  0  0  0  0  0  0  0  0  0
    0.8131   -3.7618    0.0000 O   0  0  0  0  0  0  0  0  0  0  0  0
    1.9401   -4.0638    0.0000 O   0  0  0  0  0  0  0  0  0  0  0  0
    1.5276   -4.7782    0.0000 C   0  0  0  0  0  0  0  0  0  0  0  0
    0.7026   -4.7782    0.0000 C   0  0  0  0  0  0  0  0  0  0  0  0
    0.2901   -5.4927    0.0000 C   0  0  0  0  0  0  0  0  0  0  0  0
    0.7026   -6.2072    0.0000 C   0  0  0  0  0  0  0  0  0  0  0  0
    1.5276   -6.2072    0.0000 C   0  0  0  0  0  0  0  0  0  0  0  0
    1.9401   -5.4927    0.0000 C   0  0  0  0  0  0  0  0  0  0  0  0
    2.2421   -2.9368    0.0000 O   0  0  0  0  0  0  0  0  0  0  0  0
    2.9565   -3.3493    0.0000 C   0  0  0  0  0  0  0  0  0  0  0  0
    2.9565   -4.1743    0.0000 C   0  0  0  0  0  0  0  0  0  0  0  0
    3.6710   -4.5868    0.0000 C   0  0  0  0  0  0  0  0  0  0  0  0
    4.3855   -4.1743    0.0000 C   0  0  0  0  0  0  0  0  0  0  0  0
    4.3855   -3.3493    0.0000 C   0  0  0  0  0  0  0  0  0  0  0  0
    3.6710   -2.9368    0.0000 C   0  0  0  0  0  0  0  0  0  0  0  0
   -1.8829   -0.0789    0.0000 H   0  0  0  0  0  0  0  0  0  0  0  0
   -3.0099    0.2230    0.0000 H   0  0  0  0  0  0  0  0  0  0  0  0
   -3.3119   -0.9039    0.0000 H   0  0  0  0  0  0  0  0  0  0  0  0
   -2.8742   -1.6592    0.0000 H   0  0  0  0  0  0  0  0  0  0  0  0
   -2.2329   -2.0295    0.0000 H   0  0  0  0  0  0  0  0  0  0  0  0
   -0.6706   -0.7525    0.0000 H   0  0  0  0  0  0  0  0  0  0  0  0
   -1.3119   -0.3823    0.0000 H   0  0  0  0  0  0  0  0  0  0  0  0
   -1.6367   -2.3737    0.0000 H   0  0  0  0  0  0  0  0  0  0  0  0
   -0.9954   -2.7440    0.0000 H   0  0  0  0  0  0  0  0  0  0  0  0
   -0.5349   -1.2059    0.0000 H   0  0  0  0  0  0  0  0  0  0  0  0
    0.5723   -0.4306    0.0000 H   0  0  0  0  0  0  0  0  0  0  0  0
    0.0079   -0.4306    0.0000 H   0  0  0  0  0  0  0  0  0  0  0  0
    0.9190   -2.0072    0.0000 H   0  0  0  0  0  0  0  0  0  0  0  0
    1.8469   -1.5868    0.0000 H   0  0  0  0  0  0  0  0  0  0  0  0
    1.6591   -0.5856    0.0000 H   0  0  0  0  0  0  0  0  0  0  0  0
   -0.3992   -3.0882    0.0000 H   0  0  0  0  0  0  0  0  0  0  0  0
    0.2421   -3.4584    0.0000 H   0  0  0  0  0  0  0  0  0  0  0  0
    0.2901   -4.0638    0.0000 H   0  0  0  0  0  0  0  0  0  0  0  0
   -0.5349   -5.4927    0.0000 H   0  0  0  0  0  0  0  0  0  0  0  0
    0.2901   -6.9217    0.0000 H   0  0  0  0  0  0  0  0  0  0  0  0
    1.9401   -6.9217    0.0000 H   0  0  0  0  0  0  0  0  0  0  0  0
    2.7651   -5.4927    0.0000 H   0  0  0  0  0  0  0  0  0  0  0  0
    2.2421   -4.5868    0.0000 H   0  0  0  0  0  0  0  0  0  0  0  0
    3.6710   -5.4118    0.0000 H   0  0  0  0  0  0  0  0  0  0  0  0
    5.1000   -4.5868    0.0000 H   0  0  0  0  0  0  0  0  0  0  0  0
    5.1000   -2.9368    0.0000 H   0  0  0  0  0  0  0  0  0  0  0  0
    3.6710   -2.1118    0.0000 H   0  0  0  0  0  0  0  0  0  0  0  0
  1  2  1  0  0  0  0
  2  3  1  0  0  0  0
  3  4  1  0  0  0  0
  4  5  1  0  0  0  0
  5  6  1  0  0  0  0
  6  7  1  0  0  0  0
  5  8  1  0  0  0  0
  8  9  1  0  0  0  0
  9 10  1  0  0  0  0
 10 11  2  0  0  0  0
 10 12  1  0  0  0  0
 12 13  1  0  0  0  0
 14 13  4  0  0  0  0
 15 14  4  0  0  0  0
 16 15  4  0  0  0  0
 17 16  4  0  0  0  0
 18 17  4  0  0  0  0
 10 19  1  0  0  0  0
 19 20  1  0  0  0  0
 21 20  4  0  0  0  0
 22 21  4  0  0  0  0
 23 22  4  0  0  0  0
 24 23  4  0  0  0  0
 25 24  4  0  0  0  0
 13 18  4  0  0  0  0
 20 25  4  0  0  0  0
  1 26  1  0  0  0  0
  1 27  1  0  0  0  0
  1 28  1  0  0  0  0
  2 29  1  0  0  0  0
  2 30  1  0  0  0  0
  3 31  1  0  0  0  0
  3 32  1  0  0  0  0
  4 33  1  0  0  0  0
  4 34  1  0  0  0  0
  5 35  1  0  0  0  0
  6 36  1  0  0  0  0
  6 37  1  0  0  0  0
  7 38  1  0  0  0  0
  7 39  1  0  0  0  0
  7 40  1  0  0  0  0
  8 41  1  0  0  0  0
  8 42  1  0  0  0  0
 14 43  1  0  0  0  0
 15 44  1  0  0  0  0
 16 45  1  0  0  0  0
 17 46  1  0  0  0  0
 18 47  1  0  0  0  0
 21 48  1  0  0  0  0
 22 49  1  0  0  0  0
 23 50  1  0  0  0  0
 24 51  1  0  0  0  0
 25 52  1  0  0  0  0
M  END
> <id>
220768; 901830

> <casrn>
1241-94-7

> <smiles (First)>
CCCCC(CC)CO[P](=O)(Oc1ccccc1)Oc2ccccc2

> <Molecular weight>
362.3997497558594

> <name>
2-Ethylhexyl diphenyl phosphate

> <Outcome>
1

> <Molecule (RDKit Mol) (InChI Code)>
InChI=1S/C20H27O4P/c1-3-5-12-18(4-2)17-22-25(21,23-19-13-8-6-9-14-19)24-20-15-10-7-11-16-20/h6-11,13-16,18H,3-5,12,17H2,1-2H3

> <reference>
ToxValDB

> <molecule_form>
not specified

$$$$

  Mrv1812 01171911372D          

 14 13  0  0  0  0            999 V2000
    0.0000    0.0000    0.0000 C   0  0  0  0  0  0  0  0  0  0  0  0
    0.7145    0.4125    0.0000 S   0  0  0  0  0  0  0  0  0  0  0  0
    1.4290    0.0000    0.0000 C   0  0  0  0  0  0  0  0  0  0  0  0
    2.1435    0.4125    0.0000 C   0  0  0  0  0  0  0  0  0  0  0  0
    2.8579    0.0000    0.0000 C   0  0  0  0  0  0  0  0  0  0  0  0
    3.5724    0.4125    0.0000 O   0  0  0  0  0  0  0  0  0  0  0  0
   -0.4125    0.7145    0.0000 H   0  0  0  0  0  0  0  0  0  0  0  0
   -0.7144   -0.4125    0.0000 H   0  0  0  0  0  0  0  0  0  0  0  0
    0.4125   -0.7145    0.0000 H   0  0  0  0  0  0  0  0  0  0  0  0
    1.0587   -0.7372    0.0000 H   0  0  0  0  0  0  0  0  0  0  0  0
    1.7992   -0.7372    0.0000 H   0  0  0  0  0  0  0  0  0  0  0  0
    2.5137    1.1497    0.0000 H   0  0  0  0  0  0  0  0  0  0  0  0
    1.7732    1.1497    0.0000 H   0  0  0  0  0  0  0  0  0  0  0  0
    2.8579   -0.8250    0.0000 H   0  0  0  0  0  0  0  0  0  0  0  0
  1  2  1  0  0  0  0
  2  3  1  0  0  0  0
  3  4  1  0  0  0  0
  4  5  1  0  0  0  0
  5  6  2  0  0  0  0
  1  7  1  0  0  0  0
  1  8  1  0  0  0  0
  1  9  1  0  0  0  0
  3 10  1  0  0  0  0
  3 11  1  0  0  0  0
  4 12  1  0  0  0  0
  4 13  1  0  0  0  0
  5 14  1  0  0  0  0
M  END
> <id>
257950

> <casrn>
3268-49-3

> <smiles (First)>
CSCCC=O

> <Molecular weight>
104.17072296142578

> <name>
3-(Methylthio)propanal

> <Outcome>
1

> <Molecule (RDKit Mol) (InChI Code)>
InChI=1S/C4H8OS/c1-6-4-2-3-5/h3H,2,4H2,1H3

> <reference>
ToxValDB

> <molecule_form>
not specified

$$$$

  Mrv1812 01171911372D          

 21 21  0  0  0  0            999 V2000
    3.3002   -0.3536    0.0000 C   0  0  0  0  0  0  0  0  0  0  0  0
    2.5858    0.0589    0.0000 O   0  0  0  0  0  0  0  0  0  0  0  0
    1.8713   -0.3536    0.0000 C   0  0  0  0  0  0  0  0  0  0  0  0
    1.8713   -1.1786    0.0000 O   0  0  0  0  0  0  0  0  0  0  0  0
    1.1568    0.0589    0.0000 C   0  0  0  0  0  0  0  0  0  0  0  0
    0.4423   -0.3536    0.0000 C   0  0  0  0  0  0  0  0  0  0  0  0
   -0.2721    0.0589    0.0000 C   0  0  0  0  0  0  0  0  0  0  0  0
   -0.9866   -0.3536    0.0000 C   0  0  0  0  0  0  0  0  0  0  0  0
   -0.9866   -1.1786    0.0000 C   0  0  0  0  0  0  0  0  0  0  0  0
   -0.2721   -1.5911    0.0000 C   0  0  0  0  0  0  0  0  0  0  0  0
    0.4423   -1.1786    0.0000 C   0  0  0  0  0  0  0  0  0  0  0  0
    2.8877   -1.0681    0.0000 H   0  0  0  0  0  0  0  0  0  0  0  0
    4.0147   -0.7661    0.0000 H   0  0  0  0  0  0  0  0  0  0  0  0
    3.7127    0.3608    0.0000 H   0  0  0  0  0  0  0  0  0  0  0  0
    1.5271    0.7961    0.0000 H   0  0  0  0  0  0  0  0  0  0  0  0
    0.7865    0.7961    0.0000 H   0  0  0  0  0  0  0  0  0  0  0  0
   -0.2721    0.8839    0.0000 H   0  0  0  0  0  0  0  0  0  0  0  0
   -1.7011    0.0589    0.0000 H   0  0  0  0  0  0  0  0  0  0  0  0
   -1.7011   -1.5911    0.0000 H   0  0  0  0  0  0  0  0  0  0  0  0
   -0.2721   -2.4161    0.0000 H   0  0  0  0  0  0  0  0  0  0  0  0
    1.1568   -1.5911    0.0000 H   0  0  0  0  0  0  0  0  0  0  0  0
  1  2  1  0  0  0  0
  2  3  1  0  0  0  0
  3  4  2  0  0  0  0
  3  5  1  0  0  0  0
  5  6  1  0  0  0  0
  7  6  4  0  0  0  0
  8  7  4  0  0  0  0
  9  8  4  0  0  0  0
 10  9  4  0  0  0  0
 11 10  4  0  0  0  0
  6 11  4  0  0  0  0
  1 12  1  0  0  0  0
  1 13  1  0  0  0  0
  1 14  1  0  0  0  0
  5 15  1  0  0  0  0
  5 16  1  0  0  0  0
  7 17  1  0  0  0  0
  8 18  1  0  0  0  0
  9 19  1  0  0  0  0
 10 20  1  0  0  0  0
 11 21  1  0  0  0  0
M  END
> <id>
196754

> <casrn>
101-41-7

> <smiles (First)>
COC(=O)Cc1ccccc1

> <Molecular weight>
150.17449951171875

> <name>
Methyl phenylacetate

> <Outcome>
0

> <Molecule (RDKit Mol) (InChI Code)>
InChI=1S/C9H10O2/c1-11-9(10)7-8-5-3-2-4-6-8/h2-6H,7H2,1H3

> <reference>
ToxValDB

> <molecule_form>
not specified

$$$$

  Mrv1812 01171911372D          

 17 18  0  0  0  0            999 V2000
   -1.1003   -2.1058    0.0000 O   0  0  0  0  0  0  0  0  0  0  0  0
   -0.8454   -1.3211    0.0000 C   0  0  0  0  0  0  0  0  0  0  0  0
   -1.3303   -0.6537    0.0000 N   0  0  0  0  0  0  0  0  0  0  0  0
   -0.8454    0.0137    0.0000 S   0  0  0  0  0  0  0  0  0  0  0  0
   -1.5598    0.4262    0.0000 O   0  0  0  0  0  0  0  0  0  0  0  0
   -0.5098    0.7674    0.0000 O   0  0  0  0  0  0  0  0  0  0  0  0
   -0.0608   -0.2412    0.0000 C   0  0  0  0  0  0  0  0  0  0  0  0
    0.6537    0.1713    0.0000 C   0  0  0  0  0  0  0  0  0  0  0  0
    1.3682   -0.2412    0.0000 C   0  0  0  0  0  0  0  0  0  0  0  0
    1.3682   -1.0662    0.0000 C   0  0  0  0  0  0  0  0  0  0  0  0
    0.6537   -1.4787    0.0000 C   0  0  0  0  0  0  0  0  0  0  0  0
   -0.0608   -1.0662    0.0000 C   0  0  0  0  0  0  0  0  0  0  0  0
   -2.1553   -0.6537    0.0000 H   0  0  0  0  0  0  0  0  0  0  0  0
    0.6537    0.9963    0.0000 H   0  0  0  0  0  0  0  0  0  0  0  0
    2.0827    0.1713    0.0000 H   0  0  0  0  0  0  0  0  0  0  0  0
    2.0827   -1.4787    0.0000 H   0  0  0  0  0  0  0  0  0  0  0  0
    0.6537   -2.3037    0.0000 H   0  0  0  0  0  0  0  0  0  0  0  0
  1  2  2  0  0  0  0
  3  2  1  0  0  0  0
  4  3  1  0  0  0  0
  4  5  2  0  0  0  0
  4  6  2  0  0  0  0
  7  4  1  0  0  0  0
  7  8  4  0  0  0  0
  8  9  4  0  0  0  0
  9 10  4  0  0  0  0
 10 11  4  0  0  0  0
 11 12  4  0  0  0  0
  2 12  1  0  0  0  0
 12  7  4  0  0  0  0
  3 13  1  0  0  0  0
  8 14  1  0  0  0  0
  9 15  1  0  0  0  0
 10 16  1  0  0  0  0
 11 17  1  0  0  0  0
M  END
> <id>
330319

> <casrn>
81-07-2

> <smiles (First)>
O=C1N[S](=O)(=O)c2ccccc12

> <Molecular weight>
183.1844940185547

> <name>
Saccharin

> <Outcome>
0

> <Molecule (RDKit Mol) (InChI Code)>
InChI=1S/C7H5NO3S/c9-7-5-3-1-2-4-6(5)12(10,11)8-7/h1-4H,(H,8,9)

> <reference>
ToxValDB

> <molecule_form>
not specified

$$$$

  Mrv1812 01171911372D          

 20 20  0  0  0  0            999 V2000
    1.2956    1.3226    0.0000 C   0  0  0  0  0  0  0  0  0  0  0  0
    0.5811    0.9101    0.0000 C   0  0  0  0  0  0  0  0  0  0  0  0
   -0.1333    1.3226    0.0000 C   0  0  0  0  0  0  0  0  0  0  0  0
   -0.8478    0.9101    0.0000 C   0  0  0  0  0  0  0  0  0  0  0  0
   -0.8478    0.0851    0.0000 C   0  0  0  0  0  0  0  0  0  0  0  0
   -1.5623   -0.3274    0.0000 N   0  0  0  0  0  0  0  0  0  0  0  0
   -0.1333   -0.3274    0.0000 C   0  0  0  0  0  0  0  0  0  0  0  0
   -0.1333   -1.1524    0.0000 C   0  0  0  0  0  0  0  0  0  0  0  0
    0.5811    0.0851    0.0000 C   0  0  0  0  0  0  0  0  0  0  0  0
    1.7081    0.6081    0.0000 H   0  0  0  0  0  0  0  0  0  0  0  0
    2.0101    1.7351    0.0000 H   0  0  0  0  0  0  0  0  0  0  0  0
    0.8831    2.0371    0.0000 H   0  0  0  0  0  0  0  0  0  0  0  0
   -0.1333    2.1476    0.0000 H   0  0  0  0  0  0  0  0  0  0  0  0
   -1.5623    1.3226    0.0000 H   0  0  0  0  0  0  0  0  0  0  0  0
   -2.2767    0.0851    0.0000 H   0  0  0  0  0  0  0  0  0  0  0  0
   -1.5623   -1.1524    0.0000 H   0  0  0  0  0  0  0  0  0  0  0  0
   -0.9583   -1.1524    0.0000 H   0  0  0  0  0  0  0  0  0  0  0  0
   -0.1333   -1.9774    0.0000 H   0  0  0  0  0  0  0  0  0  0  0  0
    0.6917   -1.1524    0.0000 H   0  0  0  0  0  0  0  0  0  0  0  0
    1.2956   -0.3274    0.0000 H   0  0  0  0  0  0  0  0  0  0  0  0
  1  2  1  0  0  0  0
  3  2  4  0  0  0  0
  4  3  4  0  0  0  0
  5  4  4  0  0  0  0
  5  6  1  0  0  0  0
  7  5  4  0  0  0  0
  7  8  1  0  0  0  0
  9  7  4  0  0  0  0
  2  9  4  0  0  0  0
  1 10  1  0  0  0  0
  1 11  1  0  0  0  0
  1 12  1  0  0  0  0
  3 13  1  0  0  0  0
  4 14  1  0  0  0  0
  6 15  1  0  0  0  0
  6 16  1  0  0  0  0
  8 17  1  0  0  0  0
  8 18  1  0  0  0  0
  8 19  1  0  0  0  0
  9 20  1  0  0  0  0
M  END
> <id>
351005; 913973

> <casrn>
95-68-1

> <smiles (First)>
Cc1ccc(N)c(C)c1

> <Molecular weight>
121.17964172363281

> <name>
2,4-Dimethylaniline

> <Outcome>
1

> <Molecule (RDKit Mol) (InChI Code)>
InChI=1S/C8H11N/c1-6-3-4-8(9)7(2)5-6/h3-5H,9H2,1-2H3

> <reference>
ToxValDB

> <molecule_form>
not specified

$$$$

  Mrv1812 01171911372D          

 34 33  0  0  0  0            999 V2000
    5.0558   -0.6659    0.0000 C   0  0  0  0  0  0  0  0  0  0  0  0
    4.6433    0.0486    0.0000 C   0  0  0  0  0  0  0  0  0  0  0  0
    5.0558    0.7630    0.0000 O   0  0  0  0  0  0  0  0  0  0  0  0
    3.8183    0.0486    0.0000 O   0  0  0  0  0  0  0  0  0  0  0  0
    3.4058    0.7630    0.0000 C   0  0  0  0  0  0  0  0  0  0  0  0
    4.1202    1.1755    0.0000 C   0  0  0  0  0  0  0  0  0  0  0  0
    2.6913    0.3505    0.0000 C   0  0  0  0  0  0  0  0  0  0  0  0
    2.9933    1.4775    0.0000 C   0  0  0  0  0  0  0  0  0  0  0  0
    2.1683    1.4775    0.0000 C   0  0  0  0  0  0  0  0  0  0  0  0
    1.7558    2.1920    0.0000 C   0  0  0  0  0  0  0  0  0  0  0  0
    0.9308    2.1920    0.0000 C   0  0  0  0  0  0  0  0  0  0  0  0
    0.5183    1.4775    0.0000 C   0  0  0  0  0  0  0  0  0  0  0  0
    0.5183    2.9064    0.0000 C   0  0  0  0  0  0  0  0  0  0  0  0
   -0.3067    2.9064    0.0000 C   0  0  0  0  0  0  0  0  0  0  0  0
    4.3413   -1.0784    0.0000 H   0  0  0  0  0  0  0  0  0  0  0  0
    5.4683   -1.3804    0.0000 H   0  0  0  0  0  0  0  0  0  0  0  0
    5.7702   -0.2534    0.0000 H   0  0  0  0  0  0  0  0  0  0  0  0
    4.5327    0.4611    0.0000 H   0  0  0  0  0  0  0  0  0  0  0  0
    4.8347    1.5880    0.0000 H   0  0  0  0  0  0  0  0  0  0  0  0
    3.7077    1.8900    0.0000 H   0  0  0  0  0  0  0  0  0  0  0  0
    2.2788    1.0650    0.0000 H   0  0  0  0  0  0  0  0  0  0  0  0
    1.9768   -0.0620    0.0000 H   0  0  0  0  0  0  0  0  0  0  0  0
    3.1038   -0.3639    0.0000 H   0  0  0  0  0  0  0  0  0  0  0  0
    2.7797    2.2744    0.0000 H   0  0  0  0  0  0  0  0  0  0  0  0
    3.7902    1.2640    0.0000 H   0  0  0  0  0  0  0  0  0  0  0  0
    1.4061    1.1618    0.0000 H   0  0  0  0  0  0  0  0  0  0  0  0
    2.5808    2.1920    0.0000 H   0  0  0  0  0  0  0  0  0  0  0  0
    2.0379    2.9672    0.0000 H   0  0  0  0  0  0  0  0  0  0  0  0
    1.4736    2.9672    0.0000 H   0  0  0  0  0  0  0  0  0  0  0  0
   -0.2917    1.6342    0.0000 H   0  0  0  0  0  0  0  0  0  0  0  0
    0.0032    0.8330    0.0000 H   0  0  0  0  0  0  0  0  0  0  0  0
    0.4921    3.7310    0.0000 H   0  0  0  0  0  0  0  0  0  0  0  0
   -0.7192    3.6209    0.0000 H   0  0  0  0  0  0  0  0  0  0  0  0
   -0.7192    2.1920    0.0000 H   0  0  0  0  0  0  0  0  0  0  0  0
  1  2  1  0  0  0  0
  2  3  2  0  0  0  0
  2  4  1  0  0  0  0
  4  5  1  0  0  0  0
  5  6  1  0  0  0  0
  5  7  1  0  0  0  0
  5  8  1  0  0  0  0
  8  9  1  0  0  0  0
  9 10  1  0  0  0  0
 10 11  1  0  0  0  0
 11 12  2  0  0  0  0
 11 13  1  0  0  0  0
 13 14  2  0  0  0  0
  1 15  1  0  0  0  0
  1 16  1  0  0  0  0
  1 17  1  0  0  0  0
  6 18  1  0  0  0  0
  6 19  1  0  0  0  0
  6 20  1  0  0  0  0
  7 21  1  0  0  0  0
  7 22  1  0  0  0  0
  7 23  1  0  0  0  0
  8 24  1  0  0  0  0
  8 25  1  0  0  0  0
  9 26  1  0  0  0  0
  9 27  1  0  0  0  0
 10 28  1  0  0  0  0
 10 29  1  0  0  0  0
 12 30  1  0  0  0  0
 12 31  1  0  0  0  0
 13 32  1  0  0  0  0
 14 33  1  0  0  0  0
 14 34  1  0  0  0  0
M  END
> <id>
328296; 901506; 797134; 797359; 797362; 797364; 797365

> <casrn>
8006-64-2

> <smiles (First)>
CC(=O)OC(C)(C)CCCC(=C)C=C

> <Molecular weight>
196.2860107421875

> <name>
Turpentine oils

> <Outcome>
1

> <Molecule (RDKit Mol) (InChI Code)>
InChI=1S/C12H20O2/c1-6-10(2)8-7-9-12(4,5)14-11(3)13/h6H,1-2,7-9H2,3-5H3

> <reference>
ToxValDB

> <molecule_form>
not specified

$$$$

  Mrv1812 01171911372D          

 59 58  0  0  0  0            999 V2000
   -0.0003    0.5275    0.0000 C   0  0  0  0  0  0  0  0  0  0  0  0
    0.7142    0.1150    0.0000 C   0  0  0  0  0  0  0  0  0  0  0  0
    1.4287    0.5275    0.0000 C   0  0  0  0  0  0  0  0  0  0  0  0
    2.1432    0.1150    0.0000 C   0  0  0  0  0  0  0  0  0  0  0  0
    2.8576    0.5275    0.0000 O   0  0  0  0  0  0  0  0  0  0  0  0
    3.5721    0.1150    0.0000 C   0  0  0  0  0  0  0  0  0  0  0  0
    4.2866    0.5275    0.0000 C   0  0  0  0  0  0  0  0  0  0  0  0
    5.0010    0.1150    0.0000 O   0  0  0  0  0  0  0  0  0  0  0  0
    5.7155    0.5275    0.0000 C   0  0  0  0  0  0  0  0  0  0  0  0
    6.4300    0.1150    0.0000 C   0  0  0  0  0  0  0  0  0  0  0  0
    7.1444    0.5275    0.0000 O   0  0  0  0  0  0  0  0  0  0  0  0
    7.8589    0.1150    0.0000 C   0  0  0  0  0  0  0  0  0  0  0  0
    8.5734    0.5275    0.0000 O   0  0  0  0  0  0  0  0  0  0  0  0
    9.2879    0.1150    0.0000 C   0  0  0  0  0  0  0  0  0  0  0  0
   10.0023    0.5275    0.0000 C   0  0  0  0  0  0  0  0  0  0  0  0
   10.7168    0.1150    0.0000 O   0  0  0  0  0  0  0  0  0  0  0  0
   11.4313    0.5275    0.0000 C   0  0  0  0  0  0  0  0  0  0  0  0
   12.1457    0.1150    0.0000 C   0  0  0  0  0  0  0  0  0  0  0  0
   12.8602    0.5275    0.0000 O   0  0  0  0  0  0  0  0  0  0  0  0
   13.5747    0.1150    0.0000 C   0  0  0  0  0  0  0  0  0  0  0  0
   14.2892    0.5275    0.0000 C   0  0  0  0  0  0  0  0  0  0  0  0
   15.0036    0.1150    0.0000 C   0  0  0  0  0  0  0  0  0  0  0  0
   15.7181    0.5275    0.0000 C   0  0  0  0  0  0  0  0  0  0  0  0
    0.4122    1.2420    0.0000 H   0  0  0  0  0  0  0  0  0  0  0  0
   -0.7147    0.9400    0.0000 H   0  0  0  0  0  0  0  0  0  0  0  0
   -0.4128   -0.1870    0.0000 H   0  0  0  0  0  0  0  0  0  0  0  0
    0.3440   -0.6223    0.0000 H   0  0  0  0  0  0  0  0  0  0  0  0
    1.0845   -0.6223    0.0000 H   0  0  0  0  0  0  0  0  0  0  0  0
    1.7989    1.2647    0.0000 H   0  0  0  0  0  0  0  0  0  0  0  0
    1.0584    1.2647    0.0000 H   0  0  0  0  0  0  0  0  0  0  0  0
    1.7729   -0.6223    0.0000 H   0  0  0  0  0  0  0  0  0  0  0  0
    2.5134   -0.6223    0.0000 H   0  0  0  0  0  0  0  0  0  0  0  0
    3.2018   -0.6223    0.0000 H   0  0  0  0  0  0  0  0  0  0  0  0
    3.9424   -0.6223    0.0000 H   0  0  0  0  0  0  0  0  0  0  0  0
    4.6568    1.2647    0.0000 H   0  0  0  0  0  0  0  0  0  0  0  0
    3.9163    1.2647    0.0000 H   0  0  0  0  0  0  0  0  0  0  0  0
    6.0858    1.2647    0.0000 H   0  0  0  0  0  0  0  0  0  0  0  0
    5.3452    1.2647    0.0000 H   0  0  0  0  0  0  0  0  0  0  0  0
    6.0597   -0.6223    0.0000 H   0  0  0  0  0  0  0  0  0  0  0  0
    6.8002   -0.6223    0.0000 H   0  0  0  0  0  0  0  0  0  0  0  0
    7.4887   -0.6223    0.0000 H   0  0  0  0  0  0  0  0  0  0  0  0
    8.2292   -0.6223    0.0000 H   0  0  0  0  0  0  0  0  0  0  0  0
    8.9176   -0.6223    0.0000 H   0  0  0  0  0  0  0  0  0  0  0  0
    9.6581   -0.6223    0.0000 H   0  0  0  0  0  0  0  0  0  0  0  0
   10.3726    1.2647    0.0000 H   0  0  0  0  0  0  0  0  0  0  0  0
    9.6321    1.2647    0.0000 H   0  0  0  0  0  0  0  0  0  0  0  0
   11.8015    1.2647    0.0000 H   0  0  0  0  0  0  0  0  0  0  0  0
   11.0610    1.2647    0.0000 H   0  0  0  0  0  0  0  0  0  0  0  0
   11.7755   -0.6223    0.0000 H   0  0  0  0  0  0  0  0  0  0  0  0
   12.5160   -0.6223    0.0000 H   0  0  0  0  0  0  0  0  0  0  0  0
   13.2044   -0.6223    0.0000 H   0  0  0  0  0  0  0  0  0  0  0  0
   13.9449   -0.6223    0.0000 H   0  0  0  0  0  0  0  0  0  0  0  0
   14.6594    1.2647    0.0000 H   0  0  0  0  0  0  0  0  0  0  0  0
   13.9189    1.2647    0.0000 H   0  0  0  0  0  0  0  0  0  0  0  0
   14.6334   -0.6223    0.0000 H   0  0  0  0  0  0  0  0  0  0  0  0
   15.3739   -0.6223    0.0000 H   0  0  0  0  0  0  0  0  0  0  0  0
   16.1306   -0.1870    0.0000 H   0  0  0  0  0  0  0  0  0  0  0  0
   16.4326    0.9400    0.0000 H   0  0  0  0  0  0  0  0  0  0  0  0
   15.3056    1.2420    0.0000 H   0  0  0  0  0  0  0  0  0  0  0  0
  1  2  1  0  0  0  0
  2  3  1  0  0  0  0
  3  4  1  0  0  0  0
  4  5  1  0  0  0  0
  5  6  1  0  0  0  0
  6  7  1  0  0  0  0
  7  8  1  0  0  0  0
  8  9  1  0  0  0  0
  9 10  1  0  0  0  0
 10 11  1  0  0  0  0
 11 12  1  0  0  0  0
 12 13  1  0  0  0  0
 13 14  1  0  0  0  0
 14 15  1  0  0  0  0
 15 16  1  0  0  0  0
 16 17  1  0  0  0  0
 17 18  1  0  0  0  0
 18 19  1  0  0  0  0
 19 20  1  0  0  0  0
 20 21  1  0  0  0  0
 21 22  1  0  0  0  0
 22 23  1  0  0  0  0
  1 24  1  0  0  0  0
  1 25  1  0  0  0  0
  1 26  1  0  0  0  0
  2 27  1  0  0  0  0
  2 28  1  0  0  0  0
  3 29  1  0  0  0  0
  3 30  1  0  0  0  0
  4 31  1  0  0  0  0
  4 32  1  0  0  0  0
  6 33  1  0  0  0  0
  6 34  1  0  0  0  0
  7 35  1  0  0  0  0
  7 36  1  0  0  0  0
  9 37  1  0  0  0  0
  9 38  1  0  0  0  0
 10 39  1  0  0  0  0
 10 40  1  0  0  0  0
 12 41  1  0  0  0  0
 12 42  1  0  0  0  0
 14 43  1  0  0  0  0
 14 44  1  0  0  0  0
 15 45  1  0  0  0  0
 15 46  1  0  0  0  0
 17 47  1  0  0  0  0
 17 48  1  0  0  0  0
 18 49  1  0  0  0  0
 18 50  1  0  0  0  0
 20 51  1  0  0  0  0
 20 52  1  0  0  0  0
 21 53  1  0  0  0  0
 21 54  1  0  0  0  0
 22 55  1  0  0  0  0
 22 56  1  0  0  0  0
 23 57  1  0  0  0  0
 23 58  1  0  0  0  0
 23 59  1  0  0  0  0
M  END
> <id>
798140

> <casrn>
143-29-3

> <smiles (First)>
CCCCOCCOCCOCOCCOCCOCCCC

> <Molecular weight>
336.4641418457031

> <name>
Bis(butoxyethoxyethoxy)methane

> <Outcome>
0

> <Molecule (RDKit Mol) (InChI Code)>
InChI=1S/C17H36O6/c1-3-5-7-18-9-11-20-13-15-22-17-23-16-14-21-12-10-19-8-6-4-2/h3-17H2,1-2H3

> <reference>
ToxValDB

> <molecule_form>
not specified

$$$$

  Mrv1812 01171911372D          

 51 51  0  0  0  0            999 V2000
   -0.9748    2.1986    0.0000 C   0  0  0  0  0  0  0  0  0  0  0  0
   -0.2603    1.7861    0.0000 C   0  0  0  0  0  0  0  0  0  0  0  0
    0.4542    2.1986    0.0000 C   0  0  0  0  0  0  0  0  0  0  0  0
    1.1686    1.7861    0.0000 C   0  0  0  0  0  0  0  0  0  0  0  0
    1.8831    2.1986    0.0000 C   0  0  0  0  0  0  0  0  0  0  0  0
    2.5976    1.7861    0.0000 C   0  0  0  0  0  0  0  0  0  0  0  0
    3.3120    2.1986    0.0000 C   0  0  0  0  0  0  0  0  0  0  0  0
    4.0265    1.7861    0.0000 C   0  0  0  0  0  0  0  0  0  0  0  0
    4.7410    2.1986    0.0000 C   0  0  0  0  0  0  0  0  0  0  0  0
    5.4555    1.7861    0.0000 C   0  0  0  0  0  0  0  0  0  0  0  0
    6.1699    2.1986    0.0000 C   0  0  0  0  0  0  0  0  0  0  0  0
    6.8844    1.7861    0.0000 C   0  0  0  0  0  0  0  0  0  0  0  0
    7.5989    2.1986    0.0000 O   0  0  0  0  0  0  0  0  0  0  0  0
    8.3133    1.7861    0.0000 C   0  0  0  0  0  0  0  0  0  0  0  0
    8.3133    0.9611    0.0000 O   0  0  0  0  0  0  0  0  0  0  0  0
    9.0278    2.1986    0.0000 C   0  0  0  0  0  0  0  0  0  0  0  0
    9.7423    1.7861    0.0000 C   0  0  0  0  0  0  0  0  0  0  0  0
   10.4568    2.1986    0.0000 C   0  0  0  0  0  0  0  0  0  0  0  0
   10.4568    3.0236    0.0000 C   0  0  0  0  0  0  0  0  0  0  0  0
    9.7423    3.4361    0.0000 C   0  0  0  0  0  0  0  0  0  0  0  0
    9.0278    3.0236    0.0000 C   0  0  0  0  0  0  0  0  0  0  0  0
   -0.5623    2.9131    0.0000 H   0  0  0  0  0  0  0  0  0  0  0  0
   -1.6892    2.6111    0.0000 H   0  0  0  0  0  0  0  0  0  0  0  0
   -1.3873    1.4842    0.0000 H   0  0  0  0  0  0  0  0  0  0  0  0
   -0.6306    1.0489    0.0000 H   0  0  0  0  0  0  0  0  0  0  0  0
    0.1100    1.0489    0.0000 H   0  0  0  0  0  0  0  0  0  0  0  0
    0.8244    2.9359    0.0000 H   0  0  0  0  0  0  0  0  0  0  0  0
    0.0839    2.9359    0.0000 H   0  0  0  0  0  0  0  0  0  0  0  0
    0.7984    1.0489    0.0000 H   0  0  0  0  0  0  0  0  0  0  0  0
    1.5389    1.0489    0.0000 H   0  0  0  0  0  0  0  0  0  0  0  0
    2.2534    2.9359    0.0000 H   0  0  0  0  0  0  0  0  0  0  0  0
    1.5128    2.9359    0.0000 H   0  0  0  0  0  0  0  0  0  0  0  0
    2.2273    1.0489    0.0000 H   0  0  0  0  0  0  0  0  0  0  0  0
    2.9678    1.0489    0.0000 H   0  0  0  0  0  0  0  0  0  0  0  0
    3.6823    2.9359    0.0000 H   0  0  0  0  0  0  0  0  0  0  0  0
    2.9418    2.9359    0.0000 H   0  0  0  0  0  0  0  0  0  0  0  0
    3.6563    1.0489    0.0000 H   0  0  0  0  0  0  0  0  0  0  0  0
    4.3968    1.0489    0.0000 H   0  0  0  0  0  0  0  0  0  0  0  0
    5.1112    2.9359    0.0000 H   0  0  0  0  0  0  0  0  0  0  0  0
    4.3707    2.9359    0.0000 H   0  0  0  0  0  0  0  0  0  0  0  0
    5.0852    1.0489    0.0000 H   0  0  0  0  0  0  0  0  0  0  0  0
    5.8257    1.0489    0.0000 H   0  0  0  0  0  0  0  0  0  0  0  0
    6.5402    2.9359    0.0000 H   0  0  0  0  0  0  0  0  0  0  0  0
    5.7997    2.9359    0.0000 H   0  0  0  0  0  0  0  0  0  0  0  0
    6.5141    1.0489    0.0000 H   0  0  0  0  0  0  0  0  0  0  0  0
    7.2547    1.0489    0.0000 H   0  0  0  0  0  0  0  0  0  0  0  0
    9.7423    0.9611    0.0000 H   0  0  0  0  0  0  0  0  0  0  0  0
   11.1712    1.7861    0.0000 H   0  0  0  0  0  0  0  0  0  0  0  0
   11.1712    3.4361    0.0000 H   0  0  0  0  0  0  0  0  0  0  0  0
    9.7423    4.2611    0.0000 H   0  0  0  0  0  0  0  0  0  0  0  0
    8.3133    3.4361    0.0000 H   0  0  0  0  0  0  0  0  0  0  0  0
  1  2  1  0  0  0  0
  2  3  1  0  0  0  0
  3  4  1  0  0  0  0
  4  5  1  0  0  0  0
  5  6  1  0  0  0  0
  6  7  1  0  0  0  0
  7  8  1  0  0  0  0
  8  9  1  0  0  0  0
  9 10  1  0  0  0  0
 10 11  1  0  0  0  0
 11 12  1  0  0  0  0
 12 13  1  0  0  0  0
 13 14  1  0  0  0  0
 14 15  2  0  0  0  0
 14 16  1  0  0  0  0
 17 16  4  0  0  0  0
 18 17  4  0  0  0  0
 19 18  4  0  0  0  0
 20 19  4  0  0  0  0
 21 20  4  0  0  0  0
 16 21  4  0  0  0  0
  1 22  1  0  0  0  0
  1 23  1  0  0  0  0
  1 24  1  0  0  0  0
  2 25  1  0  0  0  0
  2 26  1  0  0  0  0
  3 27  1  0  0  0  0
  3 28  1  0  0  0  0
  4 29  1  0  0  0  0
  4 30  1  0  0  0  0
  5 31  1  0  0  0  0
  5 32  1  0  0  0  0
  6 33  1  0  0  0  0
  6 34  1  0  0  0  0
  7 35  1  0  0  0  0
  7 36  1  0  0  0  0
  8 37  1  0  0  0  0
  8 38  1  0  0  0  0
  9 39  1  0  0  0  0
  9 40  1  0  0  0  0
 10 41  1  0  0  0  0
 10 42  1  0  0  0  0
 11 43  1  0  0  0  0
 11 44  1  0  0  0  0
 12 45  1  0  0  0  0
 12 46  1  0  0  0  0
 17 47  1  0  0  0  0
 18 48  1  0  0  0  0
 19 49  1  0  0  0  0
 20 50  1  0  0  0  0
 21 51  1  0  0  0  0
M  END
> <id>
293906

> <casrn>
68411-27-8

> <smiles (First)>
CCCCCCCCCCCCOC(=O)c1ccccc1

> <Molecular weight>
290.4403076171875

> <name>
Benzoic acid, C12-15-alkyl esters

> <Outcome>
0

> <Molecule (RDKit Mol) (InChI Code)>
InChI=1S/C19H30O2/c1-2-3-4-5-6-7-8-9-10-14-17-21-19(20)18-15-12-11-13-16-18/h11-13,15-16H,2-10,14,17H2,1H3

> <reference>
ToxValDB

> <molecule_form>
not specified

$$$$

  Mrv1812 01171911372D          

 27 28  0  0  0  0            999 V2000
    0.1385    1.0341    0.0000 C   0  0  0  0  0  0  0  0  0  0  0  0
    0.7924    0.1662    0.0000 C   0  0  0  0  0  0  0  0  0  0  0  0
    0.1193   -0.6713    0.0000 C   0  0  0  0  0  0  0  0  0  0  0  0
    0.5861    0.9912    0.0000 C   0  0  0  0  0  0  0  0  0  0  0  0
   -0.1284    0.5787    0.0000 C   0  0  0  0  0  0  0  0  0  0  0  0
   -0.1284   -0.2463    0.0000 C   0  0  0  0  0  0  0  0  0  0  0  0
    0.5861   -0.6588    0.0000 C   0  0  0  0  0  0  0  0  0  0  0  0
    0.6566   -1.5341    0.0000 C   0  0  0  0  0  0  0  0  0  0  0  0
    1.3006   -0.2463    0.0000 C   0  0  0  0  0  0  0  0  0  0  0  0
    2.0546   -0.6584    0.0000 O   0  0  0  0  0  0  0  0  0  0  0  0
    1.3006    0.5787    0.0000 C   0  0  0  0  0  0  0  0  0  0  0  0
    0.6022    1.7165    0.0000 H   0  0  0  0  0  0  0  0  0  0  0  0
   -0.2371    1.7687    0.0000 H   0  0  0  0  0  0  0  0  0  0  0  0
   -0.6862    1.0578    0.0000 H   0  0  0  0  0  0  0  0  0  0  0  0
   -0.7057   -0.6793    0.0000 H   0  0  0  0  0  0  0  0  0  0  0  0
   -0.2822   -1.3920    0.0000 H   0  0  0  0  0  0  0  0  0  0  0  0
    0.5468   -1.3769    0.0000 H   0  0  0  0  0  0  0  0  0  0  0  0
    1.3051    1.3958    0.0000 H   0  0  0  0  0  0  0  0  0  0  0  0
   -0.8781    0.2344    0.0000 H   0  0  0  0  0  0  0  0  0  0  0  0
    0.5861    0.1662    0.0000 H   0  0  0  0  0  0  0  0  0  0  0  0
   -0.9528   -0.2766    0.0000 H   0  0  0  0  0  0  0  0  0  0  0  0
    0.6966   -0.2463    0.0000 H   0  0  0  0  0  0  0  0  0  0  0  0
    0.2718   -2.2638    0.0000 H   0  0  0  0  0  0  0  0  0  0  0  0
    1.2193   -2.1374    0.0000 H   0  0  0  0  0  0  0  0  0  0  0  0
    1.4114   -1.2011    0.0000 H   0  0  0  0  0  0  0  0  0  0  0  0
    2.0143    0.1649    0.0000 H   0  0  0  0  0  0  0  0  0  0  0  0
    2.0166    0.9886    0.0000 H   0  0  0  0  0  0  0  0  0  0  0  0
  1  2  1  0  0  0  0
  2  3  1  0  0  0  0
  4  2  1  0  0  0  0
  4  5  1  0  0  0  0
  5  6  1  0  0  0  0
  6  7  1  0  0  0  0
  7  8  1  0  0  0  0
  7  9  1  0  0  0  0
  9 10  2  0  0  0  0
  9 11  1  0  0  0  0
  2  7  1  0  0  0  0
 11  4  1  0  0  0  0
  1 12  1  0  0  0  0
  1 13  1  0  0  0  0
  1 14  1  0  0  0  0
  3 15  1  0  0  0  0
  3 16  1  0  0  0  0
  3 17  1  0  0  0  0
  4 18  1  0  0  0  0
  5 19  1  0  0  0  0
  5 20  1  0  0  0  0
  6 21  1  0  0  0  0
  6 22  1  0  0  0  0
  8 23  1  0  0  0  0
  8 24  1  0  0  0  0
  8 25  1  0  0  0  0
 11 26  1  0  0  0  0
 11 27  1  0  0  0  0
M  END
> <id>
937418

> <casrn>
76-22-2

> <smiles (First)>
CC1(C)C2CCC1(C)C(=O)C2

> <Molecular weight>
152.2334442138672

> <name>
Camphor

> <Outcome>
1

> <Molecule (RDKit Mol) (InChI Code)>
InChI=1S/C10H16O/c1-9(2)7-4-5-10(9,3)8(11)6-7/h7H,4-6H2,1-3H3

> <reference>
ToxValDB

> <molecule_form>
not specified

$$$$

  Mrv1812 01171911372D          

 55 54  0  0  0  0            999 V2000
    3.8368   -1.0542    0.0000 C   0  0  0  0  0  0  0  0  0  0  0  0
    3.8368   -0.2292    0.0000 N   0  0  0  0  0  0  0  0  0  0  0  0
    4.5513    0.1833    0.0000 C   0  0  0  0  0  0  0  0  0  0  0  0
    3.1224    0.1833    0.0000 C   0  0  0  0  0  0  0  0  0  0  0  0
    3.1224    1.0083    0.0000 C   0  0  0  0  0  0  0  0  0  0  0  0
    2.4079    1.4208    0.0000 C   0  0  0  0  0  0  0  0  0  0  0  0
    2.4079    2.2458    0.0000 N   0  0  0  0  0  0  0  0  0  0  0  0
    1.6934    2.6583    0.0000 C   0  0  0  0  0  0  0  0  0  0  0  0
    1.6934    3.4833    0.0000 C   0  0  0  0  0  0  0  0  0  0  0  0
    0.9789    3.8958    0.0000 C   0  0  0  0  0  0  0  0  0  0  0  0
    0.9789    4.7208    0.0000 N   0  0  0  0  0  0  0  0  0  0  0  0
    0.2645    5.1333    0.0000 C   0  0  0  0  0  0  0  0  0  0  0  0
    1.6934    5.1333    0.0000 C   0  0  0  0  0  0  0  0  0  0  0  0
    3.1224    2.6583    0.0000 C   0  0  0  0  0  0  0  0  0  0  0  0
    3.1224    3.4833    0.0000 C   0  0  0  0  0  0  0  0  0  0  0  0
    3.8368    3.8958    0.0000 C   0  0  0  0  0  0  0  0  0  0  0  0
    3.8368    4.7208    0.0000 N   0  0  0  0  0  0  0  0  0  0  0  0
    3.1224    5.1333    0.0000 C   0  0  0  0  0  0  0  0  0  0  0  0
    4.5513    5.1333    0.0000 C   0  0  0  0  0  0  0  0  0  0  0  0
    3.0118   -1.0542    0.0000 H   0  0  0  0  0  0  0  0  0  0  0  0
    3.8368   -1.8792    0.0000 H   0  0  0  0  0  0  0  0  0  0  0  0
    4.6618   -1.0542    0.0000 H   0  0  0  0  0  0  0  0  0  0  0  0
    4.9638   -0.5312    0.0000 H   0  0  0  0  0  0  0  0  0  0  0  0
    5.2658    0.5958    0.0000 H   0  0  0  0  0  0  0  0  0  0  0  0
    4.1388    0.8978    0.0000 H   0  0  0  0  0  0  0  0  0  0  0  0
    2.2987    0.1353    0.0000 H   0  0  0  0  0  0  0  0  0  0  0  0
    2.6690   -0.5060    0.0000 H   0  0  0  0  0  0  0  0  0  0  0  0
    3.9460    1.0563    0.0000 H   0  0  0  0  0  0  0  0  0  0  0  0
    3.5757    1.6976    0.0000 H   0  0  0  0  0  0  0  0  0  0  0  0
    1.5843    1.3728    0.0000 H   0  0  0  0  0  0  0  0  0  0  0  0
    1.9545    0.7315    0.0000 H   0  0  0  0  0  0  0  0  0  0  0  0
    0.8698    2.6103    0.0000 H   0  0  0  0  0  0  0  0  0  0  0  0
    1.2401    1.9690    0.0000 H   0  0  0  0  0  0  0  0  0  0  0  0
    2.5170    3.5313    0.0000 H   0  0  0  0  0  0  0  0  0  0  0  0
    2.1468    4.1726    0.0000 H   0  0  0  0  0  0  0  0  0  0  0  0
    0.1553    3.8478    0.0000 H   0  0  0  0  0  0  0  0  0  0  0  0
    0.5256    3.2065    0.0000 H   0  0  0  0  0  0  0  0  0  0  0  0
    0.6770    5.8478    0.0000 H   0  0  0  0  0  0  0  0  0  0  0  0
   -0.4500    5.5458    0.0000 H   0  0  0  0  0  0  0  0  0  0  0  0
   -0.1480    4.4188    0.0000 H   0  0  0  0  0  0  0  0  0  0  0  0
    2.1059    4.4188    0.0000 H   0  0  0  0  0  0  0  0  0  0  0  0
    2.4079    5.5458    0.0000 H   0  0  0  0  0  0  0  0  0  0  0  0
    1.2809    5.8478    0.0000 H   0  0  0  0  0  0  0  0  0  0  0  0
    3.5757    1.9690    0.0000 H   0  0  0  0  0  0  0  0  0  0  0  0
    3.9460    2.6103    0.0000 H   0  0  0  0  0  0  0  0  0  0  0  0
    2.9405    4.2880    0.0000 H   0  0  0  0  0  0  0  0  0  0  0  0
    3.8368    3.0708    0.0000 H   0  0  0  0  0  0  0  0  0  0  0  0
    4.6121    3.6136    0.0000 H   0  0  0  0  0  0  0  0  0  0  0  0
    4.6121    4.1780    0.0000 H   0  0  0  0  0  0  0  0  0  0  0  0
    3.7543    5.6636    0.0000 H   0  0  0  0  0  0  0  0  0  0  0  0
    3.2656    5.9458    0.0000 H   0  0  0  0  0  0  0  0  0  0  0  0
    2.3683    4.7987    0.0000 H   0  0  0  0  0  0  0  0  0  0  0  0
    5.2785    4.7437    0.0000 H   0  0  0  0  0  0  0  0  0  0  0  0
    5.2658    5.5458    0.0000 H   0  0  0  0  0  0  0  0  0  0  0  0
    4.5775    5.9579    0.0000 H   0  0  0  0  0  0  0  0  0  0  0  0
  1  2  1  0  0  0  0
  2  3  1  0  0  0  0
  2  4  1  0  0  0  0
  4  5  1  0  0  0  0
  5  6  1  0  0  0  0
  6  7  1  0  0  0  0
  7  8  1  0  0  0  0
  8  9  1  0  0  0  0
  9 10  1  0  0  0  0
 10 11  1  0  0  0  0
 11 12  1  0  0  0  0
 11 13  1  0  0  0  0
  7 14  1  0  0  0  0
 14 15  1  0  0  0  0
 15 16  1  0  0  0  0
 16 17  1  0  0  0  0
 17 18  1  0  0  0  0
 17 19  1  0  0  0  0
  1 20  1  0  0  0  0
  1 21  1  0  0  0  0
  1 22  1  0  0  0  0
  3 23  1  0  0  0  0
  3 24  1  0  0  0  0
  3 25  1  0  0  0  0
  4 26  1  0  0  0  0
  4 27  1  0  0  0  0
  5 28  1  0  0  0  0
  5 29  1  0  0  0  0
  6 30  1  0  0  0  0
  6 31  1  0  0  0  0
  8 32  1  0  0  0  0
  8 33  1  0  0  0  0
  9 34  1  0  0  0  0
  9 35  1  0  0  0  0
 10 36  1  0  0  0  0
 10 37  1  0  0  0  0
 12 38  1  0  0  0  0
 12 39  1  0  0  0  0
 12 40  1  0  0  0  0
 13 41  1  0  0  0  0
 13 42  1  0  0  0  0
 13 43  1  0  0  0  0
 14 44  1  0  0  0  0
 14 45  1  0  0  0  0
 15 46  1  0  0  0  0
 15 47  1  0  0  0  0
 16 48  1  0  0  0  0
 16 49  1  0  0  0  0
 18 50  1  0  0  0  0
 18 51  1  0  0  0  0
 18 52  1  0  0  0  0
 19 53  1  0  0  0  0
 19 54  1  0  0  0  0
 19 55  1  0  0  0  0
M  END
> <id>
258365

> <casrn>
33329-35-0

> <smiles (First)>
CN(C)CCCN(CCCN(C)C)CCCN(C)C

> <Molecular weight>
272.47314453125

> <name>
N,N-Bis[3-(dimethylamino)propyl]-N,N-dimethylpropane-1,3-diamine

> <Outcome>
1

> <Molecule (RDKit Mol) (InChI Code)>
InChI=1S/C15H36N4/c1-16(2)10-7-13-19(14-8-11-17(3)4)15-9-12-18(5)6/h7-15H2,1-6H3

> <reference>
ToxValDB

> <molecule_form>
not specified

$$$$

  Mrv1812 01171911372D          

 27 26  0  0  0  0            999 V2000
   -0.0001    0.5240    0.0000 C   0  0  0  0  0  0  0  0  0  0  0  0
    0.7144    0.1115    0.0000 C   0  0  0  0  0  0  0  0  0  0  0  0
    1.4288    0.5240    0.0000 C   0  0  0  0  0  0  0  0  0  0  0  0
    2.1433    0.1115    0.0000 C   0  0  0  0  0  0  0  0  0  0  0  0
    2.8578    0.5240    0.0000 O   0  0  0  0  0  0  0  0  0  0  0  0
    3.5723    0.1115    0.0000 C   0  0  0  0  0  0  0  0  0  0  0  0
    4.2867    0.5240    0.0000 C   0  0  0  0  0  0  0  0  0  0  0  0
    5.0012    0.1115    0.0000 C   0  0  0  0  0  0  0  0  0  0  0  0
    5.7157    0.5240    0.0000 C   0  0  0  0  0  0  0  0  0  0  0  0
    0.4124    1.2385    0.0000 H   0  0  0  0  0  0  0  0  0  0  0  0
   -0.7146    0.9365    0.0000 H   0  0  0  0  0  0  0  0  0  0  0  0
   -0.4126   -0.1905    0.0000 H   0  0  0  0  0  0  0  0  0  0  0  0
    0.3441   -0.6257    0.0000 H   0  0  0  0  0  0  0  0  0  0  0  0
    1.0846   -0.6257    0.0000 H   0  0  0  0  0  0  0  0  0  0  0  0
    1.7991    1.2613    0.0000 H   0  0  0  0  0  0  0  0  0  0  0  0
    1.0586    1.2613    0.0000 H   0  0  0  0  0  0  0  0  0  0  0  0
    1.7731   -0.6257    0.0000 H   0  0  0  0  0  0  0  0  0  0  0  0
    2.5136   -0.6257    0.0000 H   0  0  0  0  0  0  0  0  0  0  0  0
    3.2020   -0.6257    0.0000 H   0  0  0  0  0  0  0  0  0  0  0  0
    3.9425   -0.6257    0.0000 H   0  0  0  0  0  0  0  0  0  0  0  0
    4.6570    1.2613    0.0000 H   0  0  0  0  0  0  0  0  0  0  0  0
    3.9165    1.2613    0.0000 H   0  0  0  0  0  0  0  0  0  0  0  0
    4.6309   -0.6257    0.0000 H   0  0  0  0  0  0  0  0  0  0  0  0
    5.3715   -0.6257    0.0000 H   0  0  0  0  0  0  0  0  0  0  0  0
    6.1282   -0.1905    0.0000 H   0  0  0  0  0  0  0  0  0  0  0  0
    6.4301    0.9365    0.0000 H   0  0  0  0  0  0  0  0  0  0  0  0
    5.3032    1.2385    0.0000 H   0  0  0  0  0  0  0  0  0  0  0  0
  1  2  1  0  0  0  0
  2  3  1  0  0  0  0
  3  4  1  0  0  0  0
  4  5  1  0  0  0  0
  5  6  1  0  0  0  0
  6  7  1  0  0  0  0
  7  8  1  0  0  0  0
  8  9  1  0  0  0  0
  1 10  1  0  0  0  0
  1 11  1  0  0  0  0
  1 12  1  0  0  0  0
  2 13  1  0  0  0  0
  2 14  1  0  0  0  0
  3 15  1  0  0  0  0
  3 16  1  0  0  0  0
  4 17  1  0  0  0  0
  4 18  1  0  0  0  0
  6 19  1  0  0  0  0
  6 20  1  0  0  0  0
  7 21  1  0  0  0  0
  7 22  1  0  0  0  0
  8 23  1  0  0  0  0
  8 24  1  0  0  0  0
  9 25  1  0  0  0  0
  9 26  1  0  0  0  0
  9 27  1  0  0  0  0
M  END
> <id>
900922

> <casrn>
142-96-1

> <smiles (First)>
CCCCOCCCC

> <Molecular weight>
130.22792053222656

> <name>
Butyl ether

> <Outcome>
0

> <Molecule (RDKit Mol) (InChI Code)>
InChI=1S/C8H18O/c1-3-5-7-9-8-6-4-2/h3-8H2,1-2H3

> <reference>
ToxValDB

> <molecule_form>
not specified

$$$$

  Mrv1812 01171911372D          

 13 12  0  0  0  0            999 V2000
    1.1797    1.1797    0.0000 C   0  0  0  0  0  0  0  0  0  0  0  0
    0.7672    0.4652    0.0000 C   0  0  0  0  0  0  0  0  0  0  0  0
    1.1797   -0.2493    0.0000 C   0  0  0  0  0  0  0  0  0  0  0  0
    0.7672   -0.9637    0.0000 C   0  0  0  0  0  0  0  0  0  0  0  0
    1.1797   -1.6782    0.0000 Cl  0  0  0  0  0  0  0  0  0  0  0  0
   -0.0578   -0.9637    0.0000 O   0  0  0  0  0  0  0  0  0  0  0  0
    1.8942    0.7672    0.0000 H   0  0  0  0  0  0  0  0  0  0  0  0
    1.5922    1.8941    0.0000 H   0  0  0  0  0  0  0  0  0  0  0  0
    0.4652    1.5922    0.0000 H   0  0  0  0  0  0  0  0  0  0  0  0
    0.0300    0.8355    0.0000 H   0  0  0  0  0  0  0  0  0  0  0  0
    0.0300    0.0949    0.0000 H   0  0  0  0  0  0  0  0  0  0  0  0
    1.9169   -0.6195    0.0000 H   0  0  0  0  0  0  0  0  0  0  0  0
    1.9169    0.1210    0.0000 H   0  0  0  0  0  0  0  0  0  0  0  0
  1  2  1  0  0  0  0
  2  3  1  0  0  0  0
  3  4  1  0  0  0  0
  4  5  1  0  0  0  0
  4  6  2  0  0  0  0
  1  7  1  0  0  0  0
  1  8  1  0  0  0  0
  1  9  1  0  0  0  0
  2 10  1  0  0  0  0
  2 11  1  0  0  0  0
  3 12  1  0  0  0  0
  3 13  1  0  0  0  0
M  END
> <id>
904927

> <casrn>
141-75-3

> <smiles (First)>
CCCC(Cl)=O

> <Molecular weight>
106.55078125

> <name>
Butyryl chloride

> <Outcome>
1

> <Molecule (RDKit Mol) (InChI Code)>
InChI=1S/C4H7ClO/c1-2-3-4(5)6/h2-3H2,1H3

> <reference>
ToxValDB

> <molecule_form>
not specified

$$$$

  Mrv1812 01171911372D          

 26 25  0  0  0  0            999 V2000
    4.0390    1.9628    0.0000 C   0  0  0  0  0  0  0  0  0  0  0  0
    3.2140    1.9628    0.0000 C   0  0  0  0  0  0  0  0  0  0  0  0
    2.8015    1.2483    0.0000 C   0  0  0  0  0  0  0  0  0  0  0  0
    1.9765    1.2483    0.0000 C   0  0  0  0  0  0  0  0  0  0  0  0
    1.5640    0.5338    0.0000 C   0  0  0  0  0  0  0  0  0  0  0  0
    0.7390    0.5338    0.0000 C   0  0  0  0  0  0  0  0  0  0  0  0
    0.3265   -0.1807    0.0000 C   0  0  0  0  0  0  0  0  0  0  0  0
   -0.4985   -0.1807    0.0000 C   0  0  0  0  0  0  0  0  0  0  0  0
   -0.9110   -0.8951    0.0000 C   0  0  0  0  0  0  0  0  0  0  0  0
   -0.4985   -1.6096    0.0000 C   0  0  0  0  0  0  0  0  0  0  0  0
    4.0390    1.1378    0.0000 H   0  0  0  0  0  0  0  0  0  0  0  0
    4.8640    1.9628    0.0000 H   0  0  0  0  0  0  0  0  0  0  0  0
    4.0390    2.7878    0.0000 H   0  0  0  0  0  0  0  0  0  0  0  0
    3.1660    2.7864    0.0000 H   0  0  0  0  0  0  0  0  0  0  0  0
    2.5247    2.4161    0.0000 H   0  0  0  0  0  0  0  0  0  0  0  0
    3.2140    0.5338    0.0000 H   0  0  0  0  0  0  0  0  0  0  0  0
    1.5640    1.9628    0.0000 H   0  0  0  0  0  0  0  0  0  0  0  0
    1.6119   -0.2898    0.0000 H   0  0  0  0  0  0  0  0  0  0  0  0
    2.2532    0.0805    0.0000 H   0  0  0  0  0  0  0  0  0  0  0  0
    0.6910    1.3574    0.0000 H   0  0  0  0  0  0  0  0  0  0  0  0
    0.0497    0.9872    0.0000 H   0  0  0  0  0  0  0  0  0  0  0  0
    0.7390   -0.8951    0.0000 H   0  0  0  0  0  0  0  0  0  0  0  0
   -0.9110    0.5338    0.0000 H   0  0  0  0  0  0  0  0  0  0  0  0
   -1.7360   -0.8951    0.0000 H   0  0  0  0  0  0  0  0  0  0  0  0
   -0.9110   -2.3241    0.0000 H   0  0  0  0  0  0  0  0  0  0  0  0
    0.3265   -1.6096    0.0000 H   0  0  0  0  0  0  0  0  0  0  0  0
  1  2  1  0  0  0  0
  3  2  1  4  0  0  0
  3  4  2  0  0  0  0
  4  5  1  0  0  0  0
  5  6  1  0  0  0  0
  7  6  1  4  0  0  0
  7  8  2  0  0  0  0
  8  9  1  0  0  0  0
  9 10  2  0  0  0  0
  1 11  1  0  0  0  0
  1 12  1  0  0  0  0
  1 13  1  0  0  0  0
  2 14  1  0  0  0  0
  2 15  1  0  0  0  0
  3 16  1  0  0  0  0
  4 17  1  0  0  0  0
  5 18  1  0  0  0  0
  5 19  1  0  0  0  0
  6 20  1  0  0  0  0
  6 21  1  0  0  0  0
  7 22  1  0  0  0  0
  8 23  1  0  0  0  0
  9 24  1  0  0  0  0
 10 25  1  0  0  0  0
 10 26  1  0  0  0  0
M  END
> <id>
299806; 299852

> <casrn>
68526-56-7

> <smiles (First)>
CC/C=C/CC/C=C/C=C

> <Molecular weight>
136.23403930664062

> <name>
Alkenes, C9-?11, C10-?rich

> <Outcome>
0

> <Molecule (RDKit Mol) (InChI Code)>
InChI=1S/C10H16/c1-3-5-7-9-10-8-6-4-2/h3,5-8H,1,4,9-10H2,2H3

> <reference>
ToxValDB

> <molecule_form>
not specified

$$$$

  Mrv1812 01171911372D          

 16 16  0  0  0  0            999 V2000
    1.3346    2.0022    0.0000 Cl  0  0  0  0  0  0  0  0  0  0  0  0
    1.3346    1.1772    0.0000 C   0  0  0  0  0  0  0  0  0  0  0  0
    2.0491    0.7647    0.0000 O   0  0  0  0  0  0  0  0  0  0  0  0
    0.6201    0.7647    0.0000 C   0  0  0  0  0  0  0  0  0  0  0  0
   -0.0944    1.1772    0.0000 C   0  0  0  0  0  0  0  0  0  0  0  0
   -0.8088    0.7647    0.0000 C   0  0  0  0  0  0  0  0  0  0  0  0
   -0.8088   -0.0603    0.0000 C   0  0  0  0  0  0  0  0  0  0  0  0
   -0.0944   -0.4728    0.0000 C   0  0  0  0  0  0  0  0  0  0  0  0
    0.6201   -0.0603    0.0000 C   0  0  0  0  0  0  0  0  0  0  0  0
   -0.0944   -1.2978    0.0000 C   0  0  0  0  0  0  0  0  0  0  0  0
    0.6201   -1.7103    0.0000 Cl  0  0  0  0  0  0  0  0  0  0  0  0
   -0.8088   -1.7103    0.0000 O   0  0  0  0  0  0  0  0  0  0  0  0
   -0.0944    2.0022    0.0000 H   0  0  0  0  0  0  0  0  0  0  0  0
   -1.5233    1.1772    0.0000 H   0  0  0  0  0  0  0  0  0  0  0  0
   -1.5233   -0.4728    0.0000 H   0  0  0  0  0  0  0  0  0  0  0  0
    1.3346   -0.4728    0.0000 H   0  0  0  0  0  0  0  0  0  0  0  0
  1  2  1  0  0  0  0
  2  3  2  0  0  0  0
  2  4  1  0  0  0  0
  5  4  4  0  0  0  0
  6  5  4  0  0  0  0
  7  6  4  0  0  0  0
  8  7  4  0  0  0  0
  9  8  4  0  0  0  0
  8 10  1  0  0  0  0
 10 11  1  0  0  0  0
 10 12  2  0  0  0  0
  4  9  4  0  0  0  0
  5 13  1  0  0  0  0
  6 14  1  0  0  0  0
  7 15  1  0  0  0  0
  9 16  1  0  0  0  0
M  END
> <id>
354776

> <casrn>
99-63-8

> <smiles (First)>
ClC(=O)c1cccc(c1)C(Cl)=O

> <Molecular weight>
203.02215576171875

> <name>
1,3-Benzenedicarbonyl dichloride

> <Outcome>
1

> <Molecule (RDKit Mol) (InChI Code)>
InChI=1S/C8H4Cl2O2/c9-7(11)5-2-1-3-6(4-5)8(10)12/h1-4H

> <reference>
ToxValDB

> <molecule_form>
not specified

$$$$

  Mrv1812 01171911372D          

 28 27  0  0  0  0            999 V2000
   -0.4817   -0.1679    0.0000 C   0  0  0  0  0  0  0  0  0  0  0  0
    0.2328    0.2446    0.0000 Si  0  0  0  0  0  0  0  0  0  0  0  0
    0.6453   -0.4699    0.0000 C   0  0  0  0  0  0  0  0  0  0  0  0
   -0.1797    0.9590    0.0000 C   0  0  0  0  0  0  0  0  0  0  0  0
    0.9473    0.6571    0.0000 N   0  0  0  0  0  0  0  0  0  0  0  0
    0.9473    1.4821    0.0000 Si  0  0  0  0  0  0  0  0  0  0  0  0
    0.9473    2.3071    0.0000 C   0  0  0  0  0  0  0  0  0  0  0  0
    1.7723    1.4821    0.0000 C   0  0  0  0  0  0  0  0  0  0  0  0
    0.1223    1.4821    0.0000 C   0  0  0  0  0  0  0  0  0  0  0  0
   -0.8942    0.5465    0.0000 H   0  0  0  0  0  0  0  0  0  0  0  0
   -1.1961   -0.5804    0.0000 H   0  0  0  0  0  0  0  0  0  0  0  0
   -0.0692   -0.8824    0.0000 H   0  0  0  0  0  0  0  0  0  0  0  0
    0.7530   -1.2879    0.0000 H   0  0  0  0  0  0  0  0  0  0  0  0
    1.4422   -0.6834    0.0000 H   0  0  0  0  0  0  0  0  0  0  0  0
    1.1475    0.1846    0.0000 H   0  0  0  0  0  0  0  0  0  0  0  0
   -0.4618    1.7343    0.0000 H   0  0  0  0  0  0  0  0  0  0  0  0
   -0.9549    1.2412    0.0000 H   0  0  0  0  0  0  0  0  0  0  0  0
    0.6453    0.9590    0.0000 H   0  0  0  0  0  0  0  0  0  0  0  0
    1.7558    0.8213    0.0000 H   0  0  0  0  0  0  0  0  0  0  0  0
    1.7723    2.3071    0.0000 H   0  0  0  0  0  0  0  0  0  0  0  0
    0.9473    3.1321    0.0000 H   0  0  0  0  0  0  0  0  0  0  0  0
    0.1223    2.3071    0.0000 H   0  0  0  0  0  0  0  0  0  0  0  0
    2.3446    0.8879    0.0000 H   0  0  0  0  0  0  0  0  0  0  0  0
    2.5972    1.4717    0.0000 H   0  0  0  0  0  0  0  0  0  0  0  0
    2.3593    2.0618    0.0000 H   0  0  0  0  0  0  0  0  0  0  0  0
    0.8368    1.8946    0.0000 H   0  0  0  0  0  0  0  0  0  0  0  0
    0.5348    2.1965    0.0000 H   0  0  0  0  0  0  0  0  0  0  0  0
   -0.3309    2.1714    0.0000 H   0  0  0  0  0  0  0  0  0  0  0  0
  1  2  1  0  0  0  0
  2  3  1  0  0  0  0
  2  4  1  0  0  0  0
  2  5  1  0  0  0  0
  5  6  1  0  0  0  0
  6  7  1  0  0  0  0
  6  8  1  0  0  0  0
  6  9  1  0  0  0  0
  1 10  1  0  0  0  0
  1 11  1  0  0  0  0
  1 12  1  0  0  0  0
  3 13  1  0  0  0  0
  3 14  1  0  0  0  0
  3 15  1  0  0  0  0
  4 16  1  0  0  0  0
  4 17  1  0  0  0  0
  4 18  1  0  0  0  0
  5 19  1  0  0  0  0
  7 20  1  0  0  0  0
  7 21  1  0  0  0  0
  7 22  1  0  0  0  0
  8 23  1  0  0  0  0
  8 24  1  0  0  0  0
  8 25  1  0  0  0  0
  9 26  1  0  0  0  0
  9 27  1  0  0  0  0
  9 28  1  0  0  0  0
M  END
> <id>
202450

> <casrn>
1070-89-9

> <smiles (First)>
[Na+].C[Si](C)(C)[N-][Si](C)(C)C

> <Molecular weight>
160.38482666015625

> <name>
Silanamine, 1,1,1-trimethyl-N-(trimethylsilyl)-, sodium salt

> <Outcome>
1

> <Molecule (RDKit Mol) (InChI Code)>
InChI=1S/C6H19NSi2/c1-8(2,3)7-9(4,5)6/h7H,1-6H3

> <reference>
ToxValDB

> <molecule_form>
not specified

$$$$

  Mrv1812 01171911372D          

 62 61  0  0  0  0            999 V2000
   -0.7886   -0.9046    0.0000 C   0  0  0  0  0  0  0  0  0  0  0  0
   -0.0741   -1.3171    0.0000 C   0  0  0  0  0  0  0  0  0  0  0  0
    0.6404   -0.9046    0.0000 C   0  0  0  0  0  0  0  0  0  0  0  0
    1.3549   -1.3171    0.0000 C   0  0  0  0  0  0  0  0  0  0  0  0
    2.0693   -0.9046    0.0000 C   0  0  0  0  0  0  0  0  0  0  0  0
    2.7838   -1.3171    0.0000 C   0  0  0  0  0  0  0  0  0  0  0  0
    3.4983   -0.9046    0.0000 C   0  0  0  0  0  0  0  0  0  0  0  0
    4.2127   -1.3171    0.0000 C   0  0  0  0  0  0  0  0  0  0  0  0
    4.9272   -0.9046    0.0000 C   0  0  0  0  0  0  0  0  0  0  0  0
    5.6417   -1.3171    0.0000 C   0  0  0  0  0  0  0  0  0  0  0  0
    6.3561   -0.9046    0.0000 C   0  0  0  0  0  0  0  0  0  0  0  0
    6.3561   -0.0796    0.0000 C   0  0  0  0  0  0  0  0  0  0  0  0
    7.0706   -1.3171    0.0000 C   0  0  0  0  0  0  0  0  0  0  0  0
    7.7851   -0.9046    0.0000 C   0  0  0  0  0  0  0  0  0  0  0  0
    8.4996   -1.3171    0.0000 C   0  0  0  0  0  0  0  0  0  0  0  0
    9.2140   -0.9046    0.0000 C   0  0  0  0  0  0  0  0  0  0  0  0
    9.9285   -1.3171    0.0000 C   0  0  0  0  0  0  0  0  0  0  0  0
   10.6430   -0.9046    0.0000 C   0  0  0  0  0  0  0  0  0  0  0  0
   11.3574   -1.3171    0.0000 C   0  0  0  0  0  0  0  0  0  0  0  0
   12.0719   -0.9046    0.0000 C   0  0  0  0  0  0  0  0  0  0  0  0
   -0.3761   -0.1902    0.0000 H   0  0  0  0  0  0  0  0  0  0  0  0
   -1.5030   -0.4921    0.0000 H   0  0  0  0  0  0  0  0  0  0  0  0
   -1.2011   -1.6191    0.0000 H   0  0  0  0  0  0  0  0  0  0  0  0
   -0.4444   -2.0544    0.0000 H   0  0  0  0  0  0  0  0  0  0  0  0
    0.2962   -2.0544    0.0000 H   0  0  0  0  0  0  0  0  0  0  0  0
    1.0106   -0.1674    0.0000 H   0  0  0  0  0  0  0  0  0  0  0  0
    0.2701   -0.1674    0.0000 H   0  0  0  0  0  0  0  0  0  0  0  0
    0.9846   -2.0544    0.0000 H   0  0  0  0  0  0  0  0  0  0  0  0
    1.7251   -2.0544    0.0000 H   0  0  0  0  0  0  0  0  0  0  0  0
    2.4396   -0.1674    0.0000 H   0  0  0  0  0  0  0  0  0  0  0  0
    1.6991   -0.1674    0.0000 H   0  0  0  0  0  0  0  0  0  0  0  0
    2.4135   -2.0544    0.0000 H   0  0  0  0  0  0  0  0  0  0  0  0
    3.1541   -2.0544    0.0000 H   0  0  0  0  0  0  0  0  0  0  0  0
    3.8685   -0.1674    0.0000 H   0  0  0  0  0  0  0  0  0  0  0  0
    3.1280   -0.1674    0.0000 H   0  0  0  0  0  0  0  0  0  0  0  0
    3.8425   -2.0544    0.0000 H   0  0  0  0  0  0  0  0  0  0  0  0
    4.5830   -2.0544    0.0000 H   0  0  0  0  0  0  0  0  0  0  0  0
    5.2975   -0.1674    0.0000 H   0  0  0  0  0  0  0  0  0  0  0  0
    4.5569   -0.1674    0.0000 H   0  0  0  0  0  0  0  0  0  0  0  0
    5.2714   -2.0544    0.0000 H   0  0  0  0  0  0  0  0  0  0  0  0
    6.0119   -2.0544    0.0000 H   0  0  0  0  0  0  0  0  0  0  0  0
    5.6417   -0.4921    0.0000 H   0  0  0  0  0  0  0  0  0  0  0  0
    7.1530   -0.2932    0.0000 H   0  0  0  0  0  0  0  0  0  0  0  0
    6.7686    0.6348    0.0000 H   0  0  0  0  0  0  0  0  0  0  0  0
    5.7728    0.5037    0.0000 H   0  0  0  0  0  0  0  0  0  0  0  0
    6.7004   -2.0544    0.0000 H   0  0  0  0  0  0  0  0  0  0  0  0
    7.4409   -2.0544    0.0000 H   0  0  0  0  0  0  0  0  0  0  0  0
    8.2819   -0.2460    0.0000 H   0  0  0  0  0  0  0  0  0  0  0  0
    7.7851   -1.7296    0.0000 H   0  0  0  0  0  0  0  0  0  0  0  0
    8.6428   -2.1296    0.0000 H   0  0  0  0  0  0  0  0  0  0  0  0
    9.1315   -1.8474    0.0000 H   0  0  0  0  0  0  0  0  0  0  0  0
    9.5843   -0.1674    0.0000 H   0  0  0  0  0  0  0  0  0  0  0  0
    8.8438   -0.1674    0.0000 H   0  0  0  0  0  0  0  0  0  0  0  0
    9.9634   -2.1414    0.0000 H   0  0  0  0  0  0  0  0  0  0  0  0
   10.6515   -1.7144    0.0000 H   0  0  0  0  0  0  0  0  0  0  0  0
   11.0132   -0.1674    0.0000 H   0  0  0  0  0  0  0  0  0  0  0  0
   10.2727   -0.1674    0.0000 H   0  0  0  0  0  0  0  0  0  0  0  0
   11.4952   -2.1305    0.0000 H   0  0  0  0  0  0  0  0  0  0  0  0
   11.9872   -1.8501    0.0000 H   0  0  0  0  0  0  0  0  0  0  0  0
   12.8527   -1.1711    0.0000 H   0  0  0  0  0  0  0  0  0  0  0  0
   12.5159   -0.2093    0.0000 H   0  0  0  0  0  0  0  0  0  0  0  0
   11.5017   -0.3084    0.0000 H   0  0  0  0  0  0  0  0  0  0  0  0
  1  2  1  0  0  0  0
  2  3  1  0  0  0  0
  3  4  1  0  0  0  0
  4  5  1  0  0  0  0
  5  6  1  0  0  0  0
  6  7  1  0  0  0  0
  7  8  1  0  0  0  0
  8  9  1  0  0  0  0
  9 10  1  0  0  0  0
 10 11  1  0  0  0  0
 11 12  1  0  0  0  0
 11 13  1  0  0  0  0
 13 14  1  0  0  0  0
 14 15  1  0  0  0  0
 15 16  1  0  0  0  0
 16 17  1  0  0  0  0
 17 18  1  0  0  0  0
 18 19  1  0  0  0  0
 19 20  1  0  0  0  0
  1 21  1  0  0  0  0
  1 22  1  0  0  0  0
  1 23  1  0  0  0  0
  2 24  1  0  0  0  0
  2 25  1  0  0  0  0
  3 26  1  0  0  0  0
  3 27  1  0  0  0  0
  4 28  1  0  0  0  0
  4 29  1  0  0  0  0
  5 30  1  0  0  0  0
  5 31  1  0  0  0  0
  6 32  1  0  0  0  0
  6 33  1  0  0  0  0
  7 34  1  0  0  0  0
  7 35  1  0  0  0  0
  8 36  1  0  0  0  0
  8 37  1  0  0  0  0
  9 38  1  0  0  0  0
  9 39  1  0  0  0  0
 10 40  1  0  0  0  0
 10 41  1  0  0  0  0
 11 42  1  0  0  0  0
 12 43  1  0  0  0  0
 12 44  1  0  0  0  0
 12 45  1  0  0  0  0
 13 46  1  0  0  0  0
 13 47  1  0  0  0  0
 14 48  1  0  0  0  0
 14 49  1  0  0  0  0
 15 50  1  0  0  0  0
 15 51  1  0  0  0  0
 16 52  1  0  0  0  0
 16 53  1  0  0  0  0
 17 54  1  0  0  0  0
 17 55  1  0  0  0  0
 18 56  1  0  0  0  0
 18 57  1  0  0  0  0
 19 58  1  0  0  0  0
 19 59  1  0  0  0  0
 20 60  1  0  0  0  0
 20 61  1  0  0  0  0
 20 62  1  0  0  0  0
M  END
> <id>
242997; 906164; 906169; 906172

> <casrn>
17438-89-0

> <smiles (First)>
CCCCCCCCCCC(C)CCCCCCCC

> <Molecular weight>
282.5474853515625

> <name>
1-Decene, dimer

> <Outcome>
1

> <Molecule (RDKit Mol) (InChI Code)>
InChI=1S/C20H42/c1-4-6-8-10-12-13-15-17-19-20(3)18-16-14-11-9-7-5-2/h20H,4-19H2,1-3H3

> <reference>
ToxValDB

> <molecule_form>
not specified

$$$$

  Mrv1812 01171911372D          

 22 21  0  0  0  0            999 V2000
   -0.5043    0.8683    0.0000 C   0  0  0  0  0  0  0  0  0  0  0  0
    0.2102    1.2808    0.0000 C   0  0  0  0  0  0  0  0  0  0  0  0
    0.2102    2.1058    0.0000 C   0  0  0  0  0  0  0  0  0  0  0  0
    0.9246    0.8683    0.0000 C   0  0  0  0  0  0  0  0  0  0  0  0
    1.6391    1.2808    0.0000 C   0  0  0  0  0  0  0  0  0  0  0  0
    2.3536    0.8683    0.0000 C   0  0  0  0  0  0  0  0  0  0  0  0
    3.0680    1.2808    0.0000 C   0  0  0  0  0  0  0  0  0  0  0  0
    2.3536    0.0433    0.0000 O   0  0  0  0  0  0  0  0  0  0  0  0
   -0.9168    1.5828    0.0000 H   0  0  0  0  0  0  0  0  0  0  0  0
   -1.2188    0.4558    0.0000 H   0  0  0  0  0  0  0  0  0  0  0  0
   -0.0918    0.1538    0.0000 H   0  0  0  0  0  0  0  0  0  0  0  0
   -0.5043    1.6933    0.0000 H   0  0  0  0  0  0  0  0  0  0  0  0
    1.0070    1.8923    0.0000 H   0  0  0  0  0  0  0  0  0  0  0  0
    0.6227    2.8203    0.0000 H   0  0  0  0  0  0  0  0  0  0  0  0
   -0.3732    2.6892    0.0000 H   0  0  0  0  0  0  0  0  0  0  0  0
    0.5544    0.1311    0.0000 H   0  0  0  0  0  0  0  0  0  0  0  0
    1.2949    0.1311    0.0000 H   0  0  0  0  0  0  0  0  0  0  0  0
    2.1359    1.9395    0.0000 H   0  0  0  0  0  0  0  0  0  0  0  0
    1.6391    0.4558    0.0000 H   0  0  0  0  0  0  0  0  0  0  0  0
    3.4805    0.5663    0.0000 H   0  0  0  0  0  0  0  0  0  0  0  0
    3.7825    1.6933    0.0000 H   0  0  0  0  0  0  0  0  0  0  0  0
    2.6555    1.9953    0.0000 H   0  0  0  0  0  0  0  0  0  0  0  0
  1  2  1  0  0  0  0
  2  3  1  0  0  0  0
  2  4  1  0  0  0  0
  4  5  1  0  0  0  0
  5  6  1  0  0  0  0
  6  7  1  0  0  0  0
  6  8  2  0  0  0  0
  1  9  1  0  0  0  0
  1 10  1  0  0  0  0
  1 11  1  0  0  0  0
  2 12  1  0  0  0  0
  3 13  1  0  0  0  0
  3 14  1  0  0  0  0
  3 15  1  0  0  0  0
  4 16  1  0  0  0  0
  4 17  1  0  0  0  0
  5 18  1  0  0  0  0
  5 19  1  0  0  0  0
  7 20  1  0  0  0  0
  7 21  1  0  0  0  0
  7 22  1  0  0  0  0
M  END
> <id>
205974

> <casrn>
110-12-3

> <smiles (First)>
CC(C)CCC(C)=O

> <Molecular weight>
114.18546295166016

> <name>
5-Methyl-2-hexanone

> <Outcome>
0

> <Molecule (RDKit Mol) (InChI Code)>
InChI=1S/C7H14O/c1-6(2)4-5-7(3)8/h6H,4-5H2,1-3H3

> <reference>
ToxValDB

> <molecule_form>
not specified

$$$$

  Mrv1812 01171911372D          

 20 22  0  0  0  0            999 V2000
   -2.0348    0.2648    0.0000 Cl  0  0  0  0  0  0  0  0  0  0  0  0
   -1.3203    0.6773    0.0000 C   0  0  0  0  0  0  0  0  0  0  0  0
   -1.3203    1.5023    0.0000 C   0  0  0  0  0  0  0  0  0  0  0  0
   -2.0348    1.9148    0.0000 Cl  0  0  0  0  0  0  0  0  0  0  0  0
   -0.6058    1.9148    0.0000 C   0  0  0  0  0  0  0  0  0  0  0  0
   -0.6058    2.7398    0.0000 Cl  0  0  0  0  0  0  0  0  0  0  0  0
    0.1086    1.5023    0.0000 C   0  0  0  0  0  0  0  0  0  0  0  0
    0.1086    0.6773    0.0000 C   0  0  0  0  0  0  0  0  0  0  0  0
    0.8933    0.4224    0.0000 C   0  0  0  0  0  0  0  0  0  0  0  0
    1.1482   -0.3623    0.0000 O   0  0  0  0  0  0  0  0  0  0  0  0
    1.3782    1.0898    0.0000 O   0  0  0  0  0  0  0  0  0  0  0  0
    0.8933    1.7572    0.0000 C   0  0  0  0  0  0  0  0  0  0  0  0
    1.1482    2.5419    0.0000 O   0  0  0  0  0  0  0  0  0  0  0  0
   -0.6058    0.2648    0.0000 C   0  0  0  0  0  0  0  0  0  0  0  0
   -0.6058   -0.5602    0.0000 Cl  0  0  0  0  0  0  0  0  0  0  0  0
   -0.8121    1.0898    0.0000 C   0  0  0  0  0  0  0  0  0  0  0  0
   -1.6024    0.8530    0.0000 Cl  0  0  0  0  0  0  0  0  0  0  0  0
   -1.6024    1.3266    0.0000 Cl  0  0  0  0  0  0  0  0  0  0  0  0
    0.1949    2.3228    0.0000 H   0  0  0  0  0  0  0  0  0  0  0  0
    0.1949   -0.1432    0.0000 H   0  0  0  0  0  0  0  0  0  0  0  0
  1  2  1  0  0  0  0
  3  2  2  0  0  0  0
  3  4  1  0  0  0  0
  5  3  1  0  0  0  0
  5  6  1  0  0  0  0
  5  7  1  0  0  0  0
  8  7  1  0  0  0  0
  9  8  1  0  0  0  0
  9 10  2  0  0  0  0
 11  9  1  0  0  0  0
 12 11  1  0  0  0  0
 12 13  2  0  0  0  0
  8 14  1  0  0  0  0
 14 15  1  0  0  0  0
 14 16  1  0  0  0  0
 16 17  1  0  0  0  0
 16 18  1  0  0  0  0
  2 14  1  0  0  0  0
 16  5  1  0  0  0  0
  7 12  1  0  0  0  0
  7 19  1  0  0  0  0
  8 20  1  0  0  0  0
M  END
> <id>
211934

> <casrn>
115-27-5

> <smiles (First)>
ClC1=C(Cl)C2(Cl)C3C(C(=O)OC3=O)C1(Cl)C2(Cl)Cl

> <Molecular weight>
370.828369140625

> <name>
Chlorendic anhydride

> <Outcome>
0

> <Molecule (RDKit Mol) (InChI Code)>
InChI=1S/C9H2Cl6O3/c10-3-4(11)8(13)2-1(5(16)18-6(2)17)7(3,12)9(8,14)15/h1-2H

> <reference>
ToxValDB

> <molecule_form>
not specified

$$$$

  Mrv1812 01171911372D          

  8  7  0  0  0  0            999 V2000
    1.2814   -0.3676    0.0000 O   0  0  0  0  0  0  0  0  0  0  0  0
    0.4564   -0.3676    0.0000 C   0  0  0  0  0  0  0  0  0  0  0  0
    0.0439   -1.0821    0.0000 O   0  0  0  0  0  0  0  0  0  0  0  0
    0.0439    0.3469    0.0000 C   0  0  0  0  0  0  0  0  0  0  0  0
   -0.7811    0.3469    0.0000 Cl  0  0  0  0  0  0  0  0  0  0  0  0
    1.6939   -1.0821    0.0000 H   0  0  0  0  0  0  0  0  0  0  0  0
    0.7332    0.8002    0.0000 H   0  0  0  0  0  0  0  0  0  0  0  0
    0.0919    1.1705    0.0000 H   0  0  0  0  0  0  0  0  0  0  0  0
  1  2  1  0  0  0  0
  2  3  2  0  0  0  0
  2  4  1  0  0  0  0
  4  5  1  0  0  0  0
  1  6  1  0  0  0  0
  4  7  1  0  0  0  0
  4  8  1  0  0  0  0
M  END
> <id>
327162; 261636

> <casrn>
79-11-8

> <smiles (First)>
OC(=O)CCl

> <Molecular weight>
93.99304962158203

> <name>
Chloroacetic acid

> <Outcome>
0

> <Molecule (RDKit Mol) (InChI Code)>
InChI=1S/C2H3ClO2/c3-1-2(4)5/h1H2,(H,4,5)

> <reference>
ToxValDB

> <molecule_form>
not specified

$$$$

  Mrv1812 01171911372D          

 16 15  0  0  0  0            999 V2000
    1.9125   -0.5631    0.0000 C   0  0  0  0  0  0  0  0  0  0  0  0
    1.9125    0.2619    0.0000 C   0  0  0  0  0  0  0  0  0  0  0  0
    1.1980    0.6744    0.0000 C   0  0  0  0  0  0  0  0  0  0  0  0
    0.4835    0.2619    0.0000 C   0  0  0  0  0  0  0  0  0  0  0  0
   -0.2309    0.6744    0.0000 C   0  0  0  0  0  0  0  0  0  0  0  0
   -0.9454    1.0869    0.0000 N   0  0  0  0  0  0  0  0  0  0  0  0
    2.6270    0.6744    0.0000 C   0  0  0  0  0  0  0  0  0  0  0  0
    3.3414    1.0869    0.0000 N   0  0  0  0  0  0  0  0  0  0  0  0
    1.0875   -0.5631    0.0000 H   0  0  0  0  0  0  0  0  0  0  0  0
    1.9125   -1.3881    0.0000 H   0  0  0  0  0  0  0  0  0  0  0  0
    2.7375   -0.5631    0.0000 H   0  0  0  0  0  0  0  0  0  0  0  0
    1.1980   -0.1506    0.0000 H   0  0  0  0  0  0  0  0  0  0  0  0
    1.5683    1.4117    0.0000 H   0  0  0  0  0  0  0  0  0  0  0  0
    0.8277    1.4117    0.0000 H   0  0  0  0  0  0  0  0  0  0  0  0
   -0.1484   -0.2684    0.0000 H   0  0  0  0  0  0  0  0  0  0  0  0
    0.3403   -0.5506    0.0000 H   0  0  0  0  0  0  0  0  0  0  0  0
  1  2  1  0  0  0  0
  2  3  1  0  0  0  0
  3  4  1  0  0  0  0
  4  5  1  0  0  0  0
  5  6  3  0  0  0  0
  2  7  1  0  0  0  0
  7  8  3  0  0  0  0
  1  9  1  0  0  0  0
  1 10  1  0  0  0  0
  1 11  1  0  0  0  0
  2 12  1  0  0  0  0
  3 13  1  0  0  0  0
  3 14  1  0  0  0  0
  4 15  1  0  0  0  0
  4 16  1  0  0  0  0
M  END
> <id>
263708; 902554

> <casrn>
4553-62-2

> <smiles (First)>
CC(CCC#N)C#N

> <Molecular weight>
108.14112091064453

> <name>
2-Methylpentanedinitrile

> <Outcome>
1

> <Molecule (RDKit Mol) (InChI Code)>
InChI=1S/C6H8N2/c1-6(5-8)3-2-4-7/h6H,2-3H2,1H3

> <reference>
ToxValDB

> <molecule_form>
not specified

$$$$

  Mrv1812 01171911372D          

  9  8  0  0  0  0            999 V2000
    0.9311   -0.2534    0.0000 C   0  0  0  0  0  0  0  0  0  0  0  0
    0.5186    0.4611    0.0000 C   0  0  0  0  0  0  0  0  0  0  0  0
   -0.3064    0.4611    0.0000 C   0  0  0  0  0  0  0  0  0  0  0  0
   -1.1314    0.4611    0.0000 N   0  0  0  0  0  0  0  0  0  0  0  0
    0.2166   -0.6659    0.0000 H   0  0  0  0  0  0  0  0  0  0  0  0
    1.3436   -0.9679    0.0000 H   0  0  0  0  0  0  0  0  0  0  0  0
    1.6456    0.1591    0.0000 H   0  0  0  0  0  0  0  0  0  0  0  0
    1.2079    0.9144    0.0000 H   0  0  0  0  0  0  0  0  0  0  0  0
    0.5666    1.2847    0.0000 H   0  0  0  0  0  0  0  0  0  0  0  0
  1  2  1  0  0  0  0
  2  3  1  0  0  0  0
  3  4  3  0  0  0  0
  1  5  1  0  0  0  0
  1  6  1  0  0  0  0
  1  7  1  0  0  0  0
  2  8  1  0  0  0  0
  2  9  1  0  0  0  0
M  END
> <id>
798333

> <casrn>
107-12-0

> <smiles (First)>
CCC#N

> <Molecular weight>
55.07849884033203

> <name>
Propionitrile

> <Outcome>
1

> <Molecule (RDKit Mol) (InChI Code)>
InChI=1S/C3H5N/c1-2-3-4/h2H2,1H3

> <reference>
ToxValDB

> <molecule_form>
not specified

$$$$

  Mrv1812 01171911372D          

 10  9  0  0  0  0            999 V2000
   -0.2475    0.9178    0.0000 N   0  0  0  0  0  0  0  0  0  0  0  0
    0.1650    0.2033    0.0000 C   0  0  0  0  0  0  0  0  0  0  0  0
    0.9900    0.2033    0.0000 N   0  0  0  0  0  0  0  0  0  0  0  0
   -0.2475   -0.5112    0.0000 S   0  0  0  0  0  0  0  0  0  0  0  0
    0.1650   -1.2256    0.0000 O   0  0  0  0  0  0  0  0  0  0  0  0
   -1.0725   -0.5112    0.0000 O   0  0  0  0  0  0  0  0  0  0  0  0
    0.1650    1.6322    0.0000 H   0  0  0  0  0  0  0  0  0  0  0  0
   -1.0725    0.9178    0.0000 H   0  0  0  0  0  0  0  0  0  0  0  0
    1.4025   -0.5112    0.0000 H   0  0  0  0  0  0  0  0  0  0  0  0
   -0.2475   -1.9401    0.0000 H   0  0  0  0  0  0  0  0  0  0  0  0
  1  2  1  0  0  0  0
  2  3  2  0  0  0  0
  2  4  1  0  0  0  0
  4  5  1  0  0  0  0
  4  6  2  0  0  0  0
  1  7  1  0  0  0  0
  1  8  1  0  0  0  0
  3  9  1  0  0  0  0
  5 10  1  0  0  0  0
M  END
> <id>
243157; 986191

> <casrn>
1758-73-2

> <smiles (First)>
NC(=N)[S](O)=O

> <Molecular weight>
108.11965942382812

> <name>
Amino(imino)methanesulfinic acid

> <Outcome>
1

> <Molecule (RDKit Mol) (InChI Code)>
InChI=1S/CH4N2O2S/c2-1(3)6(4)5/h(H3,2,3)(H,4,5)

> <reference>
ToxValDB

> <molecule_form>
not specified

$$$$

  Mrv1812 01171911372D          

 26 26  0  0  0  0            999 V2000
    3.2869    0.1812    0.0000 C   0  0  0  0  0  0  0  0  0  0  0  0
    2.5725   -0.2313    0.0000 C   0  0  0  0  0  0  0  0  0  0  0  0
    1.8580    0.1812    0.0000 N   0  0  0  0  0  0  0  0  0  0  0  0
    1.8580    1.0062    0.0000 C   0  0  0  0  0  0  0  0  0  0  0  0
    1.1435    1.4187    0.0000 C   0  0  0  0  0  0  0  0  0  0  0  0
    1.1435   -0.2313    0.0000 C   0  0  0  0  0  0  0  0  0  0  0  0
    0.4291    0.1812    0.0000 C   0  0  0  0  0  0  0  0  0  0  0  0
   -0.2854   -0.2313    0.0000 C   0  0  0  0  0  0  0  0  0  0  0  0
   -0.2854   -1.0563    0.0000 C   0  0  0  0  0  0  0  0  0  0  0  0
    0.4291   -1.4688    0.0000 C   0  0  0  0  0  0  0  0  0  0  0  0
    1.1435   -1.0563    0.0000 C   0  0  0  0  0  0  0  0  0  0  0  0
    3.6994   -0.5333    0.0000 H   0  0  0  0  0  0  0  0  0  0  0  0
    4.0014    0.5937    0.0000 H   0  0  0  0  0  0  0  0  0  0  0  0
    2.8744    0.8956    0.0000 H   0  0  0  0  0  0  0  0  0  0  0  0
    2.2022   -0.9686    0.0000 H   0  0  0  0  0  0  0  0  0  0  0  0
    2.9427   -0.9686    0.0000 H   0  0  0  0  0  0  0  0  0  0  0  0
    2.6816    1.0541    0.0000 H   0  0  0  0  0  0  0  0  0  0  0  0
    2.3113    1.6955    0.0000 H   0  0  0  0  0  0  0  0  0  0  0  0
    1.5560    2.1331    0.0000 H   0  0  0  0  0  0  0  0  0  0  0  0
    0.4291    1.8312    0.0000 H   0  0  0  0  0  0  0  0  0  0  0  0
    0.7310    0.7042    0.0000 H   0  0  0  0  0  0  0  0  0  0  0  0
   -0.1543    0.7645    0.0000 H   0  0  0  0  0  0  0  0  0  0  0  0
   -0.9999    0.1812    0.0000 H   0  0  0  0  0  0  0  0  0  0  0  0
   -0.9999   -1.4688    0.0000 H   0  0  0  0  0  0  0  0  0  0  0  0
    0.4291   -2.2938    0.0000 H   0  0  0  0  0  0  0  0  0  0  0  0
    1.8580   -1.4688    0.0000 H   0  0  0  0  0  0  0  0  0  0  0  0
  1  2  1  0  0  0  0
  2  3  1  0  0  0  0
  3  4  1  0  0  0  0
  4  5  1  0  0  0  0
  3  6  1  0  0  0  0
  7  6  4  0  0  0  0
  8  7  4  0  0  0  0
  9  8  4  0  0  0  0
 10  9  4  0  0  0  0
 11 10  4  0  0  0  0
  6 11  4  0  0  0  0
  1 12  1  0  0  0  0
  1 13  1  0  0  0  0
  1 14  1  0  0  0  0
  2 15  1  0  0  0  0
  2 16  1  0  0  0  0
  4 17  1  0  0  0  0
  4 18  1  0  0  0  0
  5 19  1  0  0  0  0
  5 20  1  0  0  0  0
  5 21  1  0  0  0  0
  7 22  1  0  0  0  0
  8 23  1  0  0  0  0
  9 24  1  0  0  0  0
 10 25  1  0  0  0  0
 11 26  1  0  0  0  0
M  END
> <id>
341414

> <casrn>
91-66-7

> <smiles (First)>
CCN(CC)c1ccccc1

> <Molecular weight>
149.23280334472656

> <name>
N,N-Diethylaniline

> <Outcome>
1

> <Molecule (RDKit Mol) (InChI Code)>
InChI=1S/C10H15N/c1-3-11(4-2)10-8-6-5-7-9-10/h5-9H,3-4H2,1-2H3

> <reference>
ToxValDB

> <molecule_form>
not specified

$$$$

  Mrv1812 01171911372D          

 20 19  0  0  0  0            999 V2000
   -0.5186    0.7657    0.0000 C   0  0  0  0  0  0  0  0  0  0  0  0
    0.1958    1.1782    0.0000 C   0  0  0  0  0  0  0  0  0  0  0  0
    0.1958    2.0032    0.0000 C   0  0  0  0  0  0  0  0  0  0  0  0
    0.9103    0.7657    0.0000 C   0  0  0  0  0  0  0  0  0  0  0  0
    1.6248    1.1782    0.0000 O   0  0  0  0  0  0  0  0  0  0  0  0
    2.3392    0.7657    0.0000 C   0  0  0  0  0  0  0  0  0  0  0  0
    3.0537    1.1782    0.0000 C   0  0  0  0  0  0  0  0  0  0  0  0
    2.3392   -0.0593    0.0000 O   0  0  0  0  0  0  0  0  0  0  0  0
   -0.9311    1.4802    0.0000 H   0  0  0  0  0  0  0  0  0  0  0  0
   -1.2331    0.3532    0.0000 H   0  0  0  0  0  0  0  0  0  0  0  0
   -0.1061    0.0512    0.0000 H   0  0  0  0  0  0  0  0  0  0  0  0
   -0.5186    1.5907    0.0000 H   0  0  0  0  0  0  0  0  0  0  0  0
    0.9927    1.7897    0.0000 H   0  0  0  0  0  0  0  0  0  0  0  0
    0.6083    2.7177    0.0000 H   0  0  0  0  0  0  0  0  0  0  0  0
   -0.3875    2.5866    0.0000 H   0  0  0  0  0  0  0  0  0  0  0  0
    0.5400    0.0285    0.0000 H   0  0  0  0  0  0  0  0  0  0  0  0
    1.2806    0.0285    0.0000 H   0  0  0  0  0  0  0  0  0  0  0  0
    3.4662    0.4637    0.0000 H   0  0  0  0  0  0  0  0  0  0  0  0
    3.7682    1.5907    0.0000 H   0  0  0  0  0  0  0  0  0  0  0  0
    2.6412    1.8927    0.0000 H   0  0  0  0  0  0  0  0  0  0  0  0
  1  2  1  0  0  0  0
  2  3  1  0  0  0  0
  2  4  1  0  0  0  0
  4  5  1  0  0  0  0
  5  6  1  0  0  0  0
  6  7  1  0  0  0  0
  6  8  2  0  0  0  0
  1  9  1  0  0  0  0
  1 10  1  0  0  0  0
  1 11  1  0  0  0  0
  2 12  1  0  0  0  0
  3 13  1  0  0  0  0
  3 14  1  0  0  0  0
  3 15  1  0  0  0  0
  4 16  1  0  0  0  0
  4 17  1  0  0  0  0
  7 18  1  0  0  0  0
  7 19  1  0  0  0  0
  7 20  1  0  0  0  0
M  END
> <id>
206121; 206123

> <casrn>
110-19-0

> <smiles (First)>
CC(C)COC(C)=O

> <Molecular weight>
116.15827941894531

> <name>
Isobutyl acetate

> <Outcome>
0

> <Molecule (RDKit Mol) (InChI Code)>
InChI=1S/C6H12O2/c1-5(2)4-8-6(3)7/h5H,4H2,1-3H3

> <reference>
ToxValDB

> <molecule_form>
not specified

$$$$

  Mrv1812 01171911372D          

 23 22  0  0  0  0            999 V2000
   -0.0432    0.0122    0.0000 C   0  0  0  0  0  0  0  0  0  0  0  0
    0.6713    0.4247    0.0000 C   0  0  0  0  0  0  0  0  0  0  0  0
    1.3857    0.0122    0.0000 C   0  0  0  0  0  0  0  0  0  0  0  0
    2.1002    0.4247    0.0000 C   0  0  0  0  0  0  0  0  0  0  0  0
    2.8147    0.0122    0.0000 C   0  0  0  0  0  0  0  0  0  0  0  0
    3.5291    0.4247    0.0000 C   0  0  0  0  0  0  0  0  0  0  0  0
    2.8147   -0.8128    0.0000 C   0  0  0  0  0  0  0  0  0  0  0  0
   -0.4557    0.7267    0.0000 H   0  0  0  0  0  0  0  0  0  0  0  0
   -0.7577   -0.4003    0.0000 H   0  0  0  0  0  0  0  0  0  0  0  0
    0.3693   -0.7023    0.0000 H   0  0  0  0  0  0  0  0  0  0  0  0
    1.0415    1.1619    0.0000 H   0  0  0  0  0  0  0  0  0  0  0  0
    0.3010    1.1619    0.0000 H   0  0  0  0  0  0  0  0  0  0  0  0
    1.0155   -0.7251    0.0000 H   0  0  0  0  0  0  0  0  0  0  0  0
    1.7560   -0.7251    0.0000 H   0  0  0  0  0  0  0  0  0  0  0  0
    2.4705    1.1619    0.0000 H   0  0  0  0  0  0  0  0  0  0  0  0
    1.7299    1.1619    0.0000 H   0  0  0  0  0  0  0  0  0  0  0  0
    2.8147    0.8372    0.0000 H   0  0  0  0  0  0  0  0  0  0  0  0
    3.7427   -0.3722    0.0000 H   0  0  0  0  0  0  0  0  0  0  0  0
    4.3541    0.4247    0.0000 H   0  0  0  0  0  0  0  0  0  0  0  0
    3.7427    1.2216    0.0000 H   0  0  0  0  0  0  0  0  0  0  0  0
    1.9897   -0.8128    0.0000 H   0  0  0  0  0  0  0  0  0  0  0  0
    2.8147   -1.6378    0.0000 H   0  0  0  0  0  0  0  0  0  0  0  0
    3.6397   -0.8128    0.0000 H   0  0  0  0  0  0  0  0  0  0  0  0
  1  2  1  0  0  0  0
  2  3  1  0  0  0  0
  3  4  1  0  0  0  0
  4  5  1  0  0  0  0
  5  6  1  0  0  0  0
  5  7  1  0  0  0  0
  1  8  1  0  0  0  0
  1  9  1  0  0  0  0
  1 10  1  0  0  0  0
  2 11  1  0  0  0  0
  2 12  1  0  0  0  0
  3 13  1  0  0  0  0
  3 14  1  0  0  0  0
  4 15  1  0  0  0  0
  4 16  1  0  0  0  0
  5 17  1  0  0  0  0
  6 18  1  0  0  0  0
  6 19  1  0  0  0  0
  6 20  1  0  0  0  0
  7 21  1  0  0  0  0
  7 22  1  0  0  0  0
  7 23  1  0  0  0  0
M  END
> <id>
257188

> <casrn>
31394-54-4

> <smiles (First)>
CCCCC(C)C

> <Molecular weight>
100.20194244384766

> <name>
isoheptane

> <Outcome>
0

> <Molecule (RDKit Mol) (InChI Code)>
InChI=1S/C7H16/c1-4-5-6-7(2)3/h7H,4-6H2,1-3H3

> <reference>
ToxValDB

> <molecule_form>
not specified

$$$$

  Mrv1812 01171911372D          

 23 23  0  0  0  0            999 V2000
    2.2107    0.1614    0.0000 C   0  0  0  0  0  0  0  0  0  0  0  0
    1.4962    0.5739    0.0000 N   0  0  0  0  0  0  0  0  0  0  0  0
    1.4962    1.3989    0.0000 C   0  0  0  0  0  0  0  0  0  0  0  0
    0.7817    0.1614    0.0000 C   0  0  0  0  0  0  0  0  0  0  0  0
    0.0673    0.5739    0.0000 C   0  0  0  0  0  0  0  0  0  0  0  0
   -0.6472    0.1614    0.0000 C   0  0  0  0  0  0  0  0  0  0  0  0
   -0.6472   -0.6636    0.0000 C   0  0  0  0  0  0  0  0  0  0  0  0
   -1.3617   -1.0761    0.0000 C   0  0  0  0  0  0  0  0  0  0  0  0
    0.0673   -1.0761    0.0000 C   0  0  0  0  0  0  0  0  0  0  0  0
    0.7817   -0.6636    0.0000 C   0  0  0  0  0  0  0  0  0  0  0  0
    1.7982   -0.5531    0.0000 H   0  0  0  0  0  0  0  0  0  0  0  0
    2.9252   -0.2511    0.0000 H   0  0  0  0  0  0  0  0  0  0  0  0
    2.6232    0.8759    0.0000 H   0  0  0  0  0  0  0  0  0  0  0  0
    2.3212    1.3989    0.0000 H   0  0  0  0  0  0  0  0  0  0  0  0
    1.4962    2.2239    0.0000 H   0  0  0  0  0  0  0  0  0  0  0  0
    0.6712    1.3989    0.0000 H   0  0  0  0  0  0  0  0  0  0  0  0
    0.0673    1.3989    0.0000 H   0  0  0  0  0  0  0  0  0  0  0  0
   -1.3617    0.5739    0.0000 H   0  0  0  0  0  0  0  0  0  0  0  0
   -1.7742   -0.3616    0.0000 H   0  0  0  0  0  0  0  0  0  0  0  0
   -2.0761   -1.4886    0.0000 H   0  0  0  0  0  0  0  0  0  0  0  0
   -0.9492   -1.7906    0.0000 H   0  0  0  0  0  0  0  0  0  0  0  0
    0.0673   -1.9011    0.0000 H   0  0  0  0  0  0  0  0  0  0  0  0
    1.4962   -1.0761    0.0000 H   0  0  0  0  0  0  0  0  0  0  0  0
  1  2  1  0  0  0  0
  2  3  1  0  0  0  0
  2  4  1  0  0  0  0
  5  4  4  0  0  0  0
  6  5  4  0  0  0  0
  7  6  4  0  0  0  0
  7  8  1  0  0  0  0
  9  7  4  0  0  0  0
 10  9  4  0  0  0  0
  4 10  4  0  0  0  0
  1 11  1  0  0  0  0
  1 12  1  0  0  0  0
  1 13  1  0  0  0  0
  3 14  1  0  0  0  0
  3 15  1  0  0  0  0
  3 16  1  0  0  0  0
  5 17  1  0  0  0  0
  6 18  1  0  0  0  0
  8 19  1  0  0  0  0
  8 20  1  0  0  0  0
  8 21  1  0  0  0  0
  9 22  1  0  0  0  0
 10 23  1  0  0  0  0
M  END
> <id>
981353

> <casrn>
99-97-8

> <smiles (First)>
CN(C)c1ccc(C)cc1

> <Molecular weight>
135.2062225341797

> <name>
N,N,4-Trimethylaniline

> <Outcome>
1

> <Molecule (RDKit Mol) (InChI Code)>
InChI=1S/C9H13N/c1-8-4-6-9(7-5-8)10(2)3/h4-7H,1-3H3

> <reference>
ToxValDB

> <molecule_form>
not specified

$$$$

  Mrv1812 01171911372D          

 24 26  0  0  0  0            999 V2000
    0.6164   -0.0219    0.0000 C   0  0  0  0  0  0  0  0  0  0  0  0
    0.6164   -0.8469    0.0000 C   0  0  0  0  0  0  0  0  0  0  0  0
   -0.0981   -1.2594    0.0000 C   0  0  0  0  0  0  0  0  0  0  0  0
   -0.3043   -0.4344    0.0000 C   0  0  0  0  0  0  0  0  0  0  0  0
   -0.0981    0.3906    0.0000 C   0  0  0  0  0  0  0  0  0  0  0  0
   -0.8125   -0.0219    0.0000 C   0  0  0  0  0  0  0  0  0  0  0  0
   -1.5972    0.2331    0.0000 C   0  0  0  0  0  0  0  0  0  0  0  0
   -2.0821   -0.4344    0.0000 C   0  0  0  0  0  0  0  0  0  0  0  0
   -1.5972   -1.1018    0.0000 C   0  0  0  0  0  0  0  0  0  0  0  0
   -0.8125   -0.8469    0.0000 C   0  0  0  0  0  0  0  0  0  0  0  0
    1.4400    0.0261    0.0000 H   0  0  0  0  0  0  0  0  0  0  0  0
    1.0698    0.6674    0.0000 H   0  0  0  0  0  0  0  0  0  0  0  0
    1.0698   -1.5361    0.0000 H   0  0  0  0  0  0  0  0  0  0  0  0
    1.4400   -0.8948    0.0000 H   0  0  0  0  0  0  0  0  0  0  0  0
   -0.0981   -2.0844    0.0000 H   0  0  0  0  0  0  0  0  0  0  0  0
    0.4414   -0.7872    0.0000 H   0  0  0  0  0  0  0  0  0  0  0  0
    0.4414   -0.0815    0.0000 H   0  0  0  0  0  0  0  0  0  0  0  0
   -0.0981    1.2156    0.0000 H   0  0  0  0  0  0  0  0  0  0  0  0
   -0.8988    0.7986    0.0000 H   0  0  0  0  0  0  0  0  0  0  0  0
   -1.9436    0.9818    0.0000 H   0  0  0  0  0  0  0  0  0  0  0  0
   -2.3630    0.5399    0.0000 H   0  0  0  0  0  0  0  0  0  0  0  0
   -2.9071   -0.4344    0.0000 H   0  0  0  0  0  0  0  0  0  0  0  0
   -1.8521   -1.8864    0.0000 H   0  0  0  0  0  0  0  0  0  0  0  0
   -0.8988   -1.6673    0.0000 H   0  0  0  0  0  0  0  0  0  0  0  0
  2  1  1  0  0  0  0
  3  2  1  0  0  0  0
  3  4  1  0  0  0  0
  4  5  1  0  0  0  0
  5  6  1  0  0  0  0
  7  6  1  0  0  0  0
  8  7  1  0  0  0  0
  9  8  2  0  0  0  0
 10  9  1  0  0  0  0
  1  5  1  0  0  0  0
 10  3  1  0  0  0  0
  6 10  1  0  0  0  0
  1 11  1  0  0  0  0
  1 12  1  0  0  0  0
  2 13  1  0  0  0  0
  2 14  1  0  0  0  0
  3 15  1  0  0  0  0
  4 16  1  0  0  0  0
  4 17  1  0  0  0  0
  5 18  1  0  0  0  0
  6 19  1  0  0  0  0
  7 20  1  0  0  0  0
  7 21  1  0  0  0  0
  8 22  1  0  0  0  0
  9 23  1  0  0  0  0
 10 24  1  0  0  0  0
M  END
> <id>
905566

> <casrn>
4488-57-7

> <smiles (First)>
C1CC2CC1C3CC=CC23

> <Molecular weight>
134.21817016601562

> <name>
4,7-Methano-1H-indene, 3a,4,5,6,7,7a-hexahydro-

> <Outcome>
1

> <Molecule (RDKit Mol) (InChI Code)>
InChI=1S/C10H14/c1-2-9-7-4-5-8(6-7)10(9)3-1/h1-2,7-10H,3-6H2

> <reference>
ToxValDB

> <molecule_form>
not specified

$$$$

  Mrv1812 01171911372D          

 22 24  0  0  0  0            999 V2000
   -1.1322   -0.1838    0.0000 C   0  0  0  0  0  0  0  0  0  0  0  0
   -1.6171   -0.8512    0.0000 C   0  0  0  0  0  0  0  0  0  0  0  0
   -1.1322   -1.5187    0.0000 C   0  0  0  0  0  0  0  0  0  0  0  0
   -0.3475   -1.2637    0.0000 C   0  0  0  0  0  0  0  0  0  0  0  0
    0.3669   -1.6762    0.0000 C   0  0  0  0  0  0  0  0  0  0  0  0
    0.5732   -0.8512    0.0000 C   0  0  0  0  0  0  0  0  0  0  0  0
    0.3669   -0.0262    0.0000 C   0  0  0  0  0  0  0  0  0  0  0  0
    1.0814   -0.4387    0.0000 C   0  0  0  0  0  0  0  0  0  0  0  0
    1.0814   -1.2637    0.0000 C   0  0  0  0  0  0  0  0  0  0  0  0
   -0.3475   -0.4387    0.0000 C   0  0  0  0  0  0  0  0  0  0  0  0
   -0.9889    0.6287    0.0000 H   0  0  0  0  0  0  0  0  0  0  0  0
   -1.7256    0.3893    0.0000 H   0  0  0  0  0  0  0  0  0  0  0  0
   -2.4421   -0.8512    0.0000 H   0  0  0  0  0  0  0  0  0  0  0  0
   -1.3871   -2.3033    0.0000 H   0  0  0  0  0  0  0  0  0  0  0  0
   -0.4338   -2.0842    0.0000 H   0  0  0  0  0  0  0  0  0  0  0  0
    0.7606   -2.4013    0.0000 H   0  0  0  0  0  0  0  0  0  0  0  0
   -0.1725   -0.4984    0.0000 H   0  0  0  0  0  0  0  0  0  0  0  0
   -0.1725   -1.2041    0.0000 H   0  0  0  0  0  0  0  0  0  0  0  0
    0.3669    0.7988    0.0000 H   0  0  0  0  0  0  0  0  0  0  0  0
    1.7959   -0.0262    0.0000 H   0  0  0  0  0  0  0  0  0  0  0  0
    1.7959   -1.6762    0.0000 H   0  0  0  0  0  0  0  0  0  0  0  0
   -0.4338    0.3817    0.0000 H   0  0  0  0  0  0  0  0  0  0  0  0
  2  1  1  0  0  0  0
  3  2  2  0  0  0  0
  4  3  1  0  0  0  0
  4  5  1  0  0  0  0
  6  5  1  0  0  0  0
  7  6  1  0  0  0  0
  8  7  1  0  0  0  0
  9  8  2  0  0  0  0
  7 10  1  0  0  0  0
  1 10  1  0  0  0  0
 10  4  1  0  0  0  0
  5  9  1  0  0  0  0
  1 11  1  0  0  0  0
  1 12  1  0  0  0  0
  2 13  1  0  0  0  0
  3 14  1  0  0  0  0
  4 15  1  0  0  0  0
  5 16  1  0  0  0  0
  6 17  1  0  0  0  0
  6 18  1  0  0  0  0
  7 19  1  0  0  0  0
  8 20  1  0  0  0  0
  9 21  1  0  0  0  0
 10 22  1  0  0  0  0
M  END
> <id>
906168

> <casrn>
77-73-6

> <smiles (First)>
C1C=CC2C3CC(C=C3)C12

> <Molecular weight>
132.20228576660156

> <name>
Dicyclopentadiene

> <Outcome>
1

> <Molecule (RDKit Mol) (InChI Code)>
InChI=1S/C10H12/c1-2-9-7-4-5-8(6-7)10(9)3-1/h1-2,4-5,7-10H,3,6H2

> <reference>
ToxValDB

> <molecule_form>
not specified

$$$$

  Mrv1812 01171911372D          

 21 20  0  0  0  0            999 V2000
    2.9485   -0.5547    0.0000 C   0  0  0  0  0  0  0  0  0  0  0  0
    2.5360    0.1598    0.0000 O   0  0  0  0  0  0  0  0  0  0  0  0
    1.7110    0.1598    0.0000 Si  0  0  0  0  0  0  0  0  0  0  0  0
    1.7110    0.9848    0.0000 C   0  0  0  0  0  0  0  0  0  0  0  0
    0.8860    0.1598    0.0000 C   0  0  0  0  0  0  0  0  0  0  0  0
    0.4735    0.8743    0.0000 N   0  0  0  0  0  0  0  0  0  0  0  0
   -0.3515    0.8743    0.0000 C   0  0  0  0  0  0  0  0  0  0  0  0
   -1.1765    0.8743    0.0000 O   0  0  0  0  0  0  0  0  0  0  0  0
    1.7110   -0.6652    0.0000 O   0  0  0  0  0  0  0  0  0  0  0  0
    0.9965   -1.0777    0.0000 C   0  0  0  0  0  0  0  0  0  0  0  0
    2.2340   -0.9672    0.0000 H   0  0  0  0  0  0  0  0  0  0  0  0
    3.3610   -1.2691    0.0000 H   0  0  0  0  0  0  0  0  0  0  0  0
    3.6629   -0.1422    0.0000 H   0  0  0  0  0  0  0  0  0  0  0  0
    2.5360    0.9848    0.0000 H   0  0  0  0  0  0  0  0  0  0  0  0
    1.7110    1.8098    0.0000 H   0  0  0  0  0  0  0  0  0  0  0  0
    0.8860    0.9848    0.0000 H   0  0  0  0  0  0  0  0  0  0  0  0
    0.1967   -0.2935    0.0000 H   0  0  0  0  0  0  0  0  0  0  0  0
    0.8380   -0.6638    0.0000 H   0  0  0  0  0  0  0  0  0  0  0  0
    0.1716   -1.0880    0.0000 H   0  0  0  0  0  0  0  0  0  0  0  0
    0.7208   -1.8553    0.0000 H   0  0  0  0  0  0  0  0  0  0  0  0
    1.6307   -1.6054    0.0000 H   0  0  0  0  0  0  0  0  0  0  0  0
  1  2  1  0  0  0  0
  2  3  1  0  0  0  0
  3  4  1  0  0  0  0
  3  5  1  0  0  0  0
  5  6  1  0  0  0  0
  6  7  2  0  0  0  0
  7  8  2  0  0  0  0
  3  9  1  0  0  0  0
  9 10  1  0  0  0  0
  1 11  1  0  0  0  0
  1 12  1  0  0  0  0
  1 13  1  0  0  0  0
  4 14  1  0  0  0  0
  4 15  1  0  0  0  0
  4 16  1  0  0  0  0
  5 17  1  0  0  0  0
  5 18  1  0  0  0  0
 10 19  1  0  0  0  0
 10 20  1  0  0  0  0
 10 21  1  0  0  0  0
M  END
> <id>
948619

> <casrn>
406679-89-8

> <smiles (First)>
CO[Si](C)(CN=C=O)OC

> <Molecular weight>
161.2312469482422

> <name>
(Isocyanatomethyl)(dimethoxy)methylsilane

> <Outcome>
1

> <Molecule (RDKit Mol) (InChI Code)>
InChI=1S/C5H11NO3Si/c1-8-10(3,9-2)5-6-4-7/h5H2,1-3H3

> <reference>
ToxValDB

> <molecule_form>
not specified

$$$$

  Mrv1812 01171911372D          

 15 14  0  0  0  0            999 V2000
    1.3853    2.2962    0.0000 C   0  0  0  0  0  0  0  0  0  0  0  0
    0.9728    1.5817    0.0000 C   0  0  0  0  0  0  0  0  0  0  0  0
    0.1478    1.5817    0.0000 C   0  0  0  0  0  0  0  0  0  0  0  0
    1.3853    0.8672    0.0000 O   0  0  0  0  0  0  0  0  0  0  0  0
    0.9728    0.1528    0.0000 C   0  0  0  0  0  0  0  0  0  0  0  0
    1.3853   -0.5617    0.0000 C   0  0  0  0  0  0  0  0  0  0  0  0
    0.1478    0.1528    0.0000 O   0  0  0  0  0  0  0  0  0  0  0  0
    2.0998    1.8837    0.0000 H   0  0  0  0  0  0  0  0  0  0  0  0
    1.7978    3.0107    0.0000 H   0  0  0  0  0  0  0  0  0  0  0  0
    0.6708    2.7087    0.0000 H   0  0  0  0  0  0  0  0  0  0  0  0
   -0.2647    2.2962    0.0000 H   0  0  0  0  0  0  0  0  0  0  0  0
   -0.2647    0.8672    0.0000 H   0  0  0  0  0  0  0  0  0  0  0  0
    0.6708   -0.9742    0.0000 H   0  0  0  0  0  0  0  0  0  0  0  0
    1.7978   -1.2762    0.0000 H   0  0  0  0  0  0  0  0  0  0  0  0
    2.0998   -0.1492    0.0000 H   0  0  0  0  0  0  0  0  0  0  0  0
  1  2  1  0  0  0  0
  2  3  2  0  0  0  0
  2  4  1  0  0  0  0
  4  5  1  0  0  0  0
  5  6  1  0  0  0  0
  5  7  2  0  0  0  0
  1  8  1  0  0  0  0
  1  9  1  0  0  0  0
  1 10  1  0  0  0  0
  3 11  1  0  0  0  0
  3 12  1  0  0  0  0
  6 13  1  0  0  0  0
  6 14  1  0  0  0  0
  6 15  1  0  0  0  0
M  END
> <id>
203678

> <casrn>
108-22-5

> <smiles (First)>
CC(=C)OC(C)=O

> <Molecular weight>
100.1158218383789

> <name>
Isopropenyl acetate

> <Outcome>
0

> <Molecule (RDKit Mol) (InChI Code)>
InChI=1S/C5H8O2/c1-4(2)7-5(3)6/h1H2,2-3H3

> <reference>
ToxValDB

> <molecule_form>
not specified

$$$$

  Mrv1812 01171911372D          

 24 24  0  0  0  0            999 V2000
    0.3741   -1.1256    0.0000 C   0  0  0  0  0  0  0  0  0  0  0  0
    0.3741   -0.3006    0.0000 C   0  0  0  0  0  0  0  0  0  0  0  0
    1.0886    0.1119    0.0000 C   0  0  0  0  0  0  0  0  0  0  0  0
    1.0886    0.9369    0.0000 C   0  0  0  0  0  0  0  0  0  0  0  0
    1.8030    1.3494    0.0000 O   0  0  0  0  0  0  0  0  0  0  0  0
    0.3741    1.3494    0.0000 C   0  0  0  0  0  0  0  0  0  0  0  0
   -0.3404    0.9369    0.0000 C   0  0  0  0  0  0  0  0  0  0  0  0
   -0.6225    1.7121    0.0000 C   0  0  0  0  0  0  0  0  0  0  0  0
   -1.1528    0.7936    0.0000 C   0  0  0  0  0  0  0  0  0  0  0  0
   -0.3404    0.1119    0.0000 C   0  0  0  0  0  0  0  0  0  0  0  0
   -0.4509   -1.1256    0.0000 H   0  0  0  0  0  0  0  0  0  0  0  0
    0.3741   -1.9506    0.0000 H   0  0  0  0  0  0  0  0  0  0  0  0
    1.1991   -1.1256    0.0000 H   0  0  0  0  0  0  0  0  0  0  0  0
    1.8030   -0.3006    0.0000 H   0  0  0  0  0  0  0  0  0  0  0  0
    0.7444    2.0866    0.0000 H   0  0  0  0  0  0  0  0  0  0  0  0
    0.0038    2.0866    0.0000 H   0  0  0  0  0  0  0  0  0  0  0  0
   -0.7038    2.5331    0.0000 H   0  0  0  0  0  0  0  0  0  0  0  0
   -1.3999    1.9884    0.0000 H   0  0  0  0  0  0  0  0  0  0  0  0
   -1.2037    1.1265    0.0000 H   0  0  0  0  0  0  0  0  0  0  0  0
   -1.9551    0.9860    0.0000 H   0  0  0  0  0  0  0  0  0  0  0  0
   -1.6338    0.1233    0.0000 H   0  0  0  0  0  0  0  0  0  0  0  0
   -0.7136    0.0953    0.0000 H   0  0  0  0  0  0  0  0  0  0  0  0
   -0.5361   -0.6896    0.0000 H   0  0  0  0  0  0  0  0  0  0  0  0
    0.3741    0.5244    0.0000 H   0  0  0  0  0  0  0  0  0  0  0  0
  1  2  1  0  0  0  0
  3  2  2  0  0  0  0
  4  3  1  0  0  0  0
  4  5  2  0  0  0  0
  6  4  1  0  0  0  0
  7  6  1  0  0  0  0
  7  8  1  0  0  0  0
  7  9  1  0  0  0  0
 10  7  1  0  0  0  0
  2 10  1  0  0  0  0
  1 11  1  0  0  0  0
  1 12  1  0  0  0  0
  1 13  1  0  0  0  0
  3 14  1  0  0  0  0
  6 15  1  0  0  0  0
  6 16  1  0  0  0  0
  8 17  1  0  0  0  0
  8 18  1  0  0  0  0
  8 19  1  0  0  0  0
  9 20  1  0  0  0  0
  9 21  1  0  0  0  0
  9 22  1  0  0  0  0
 10 23  1  0  0  0  0
 10 24  1  0  0  0  0
M  END
> <id>
326219; 326237; 948610

> <casrn>
78-59-1

> <smiles (First)>
CC1=CC(=O)CC(C)(C)C1

> <Molecular weight>
138.2068634033203

> <name>
Isophorone

> <Outcome>
1

> <Molecule (RDKit Mol) (InChI Code)>
InChI=1S/C9H14O/c1-7-4-8(10)6-9(2,3)5-7/h4H,5-6H2,1-3H3

> <reference>
ToxValDB

> <molecule_form>
not specified

$$$$

  Mrv1812 01171911372D          

 14 14  0  0  0  0            999 V2000
    2.1829    0.2652    0.0000 O   0  0  0  0  0  0  0  0  0  0  0  0
    1.4684    0.6777    0.0000 C   0  0  0  0  0  0  0  0  0  0  0  0
    0.7540    0.2652    0.0000 C   0  0  0  0  0  0  0  0  0  0  0  0
    0.0395    0.6777    0.0000 C   0  0  0  0  0  0  0  0  0  0  0  0
   -0.6750    0.2652    0.0000 C   0  0  0  0  0  0  0  0  0  0  0  0
   -0.6750   -0.5598    0.0000 C   0  0  0  0  0  0  0  0  0  0  0  0
    0.0395   -0.9723    0.0000 C   0  0  0  0  0  0  0  0  0  0  0  0
    0.7540   -0.5598    0.0000 C   0  0  0  0  0  0  0  0  0  0  0  0
    1.4684    1.5027    0.0000 H   0  0  0  0  0  0  0  0  0  0  0  0
    0.0395    1.5027    0.0000 H   0  0  0  0  0  0  0  0  0  0  0  0
   -1.3895    0.6777    0.0000 H   0  0  0  0  0  0  0  0  0  0  0  0
   -1.3895   -0.9723    0.0000 H   0  0  0  0  0  0  0  0  0  0  0  0
    0.0395   -1.7973    0.0000 H   0  0  0  0  0  0  0  0  0  0  0  0
    1.4684   -0.9723    0.0000 H   0  0  0  0  0  0  0  0  0  0  0  0
  1  2  2  0  0  0  0
  2  3  1  0  0  0  0
  4  3  4  0  0  0  0
  5  4  4  0  0  0  0
  6  5  4  0  0  0  0
  7  6  4  0  0  0  0
  8  7  4  0  0  0  0
  3  8  4  0  0  0  0
  2  9  1  0  0  0  0
  4 10  1  0  0  0  0
  5 11  1  0  0  0  0
  6 12  1  0  0  0  0
  7 13  1  0  0  0  0
  8 14  1  0  0  0  0
M  END
> <id>
193997

> <casrn>
100-52-7

> <smiles (First)>
O=Cc1ccccc1

> <Molecular weight>
106.12194061279297

> <name>
Benzaldehyde

> <Outcome>
1

> <Molecule (RDKit Mol) (InChI Code)>
InChI=1S/C7H6O/c8-6-7-4-2-1-3-5-7/h1-6H

> <reference>
ToxValDB

> <molecule_form>
not specified

$$$$

  Mrv1812 01171911372D          

 15 15  0  0  0  0            999 V2000
    1.4805    0.6325    0.0000 C   0  0  0  0  0  0  0  0  0  0  0  0
    0.7661    0.2200    0.0000 C   0  0  0  0  0  0  0  0  0  0  0  0
    0.0516    0.6325    0.0000 C   0  0  0  0  0  0  0  0  0  0  0  0
   -0.6629    0.2200    0.0000 C   0  0  0  0  0  0  0  0  0  0  0  0
   -0.6629   -0.6050    0.0000 C   0  0  0  0  0  0  0  0  0  0  0  0
    0.0516   -1.0175    0.0000 C   0  0  0  0  0  0  0  0  0  0  0  0
    0.7661   -0.6050    0.0000 C   0  0  0  0  0  0  0  0  0  0  0  0
    1.4805   -1.0175    0.0000 Cl  0  0  0  0  0  0  0  0  0  0  0  0
    1.8930   -0.0820    0.0000 H   0  0  0  0  0  0  0  0  0  0  0  0
    2.1950    1.0450    0.0000 H   0  0  0  0  0  0  0  0  0  0  0  0
    1.0680    1.3470    0.0000 H   0  0  0  0  0  0  0  0  0  0  0  0
    0.0516    1.4575    0.0000 H   0  0  0  0  0  0  0  0  0  0  0  0
   -1.3774    0.6325    0.0000 H   0  0  0  0  0  0  0  0  0  0  0  0
   -1.3774   -1.0175    0.0000 H   0  0  0  0  0  0  0  0  0  0  0  0
    0.0516   -1.8425    0.0000 H   0  0  0  0  0  0  0  0  0  0  0  0
  1  2  1  0  0  0  0
  3  2  4  0  0  0  0
  4  3  4  0  0  0  0
  5  4  4  0  0  0  0
  6  5  4  0  0  0  0
  7  6  4  0  0  0  0
  7  8  1  0  0  0  0
  2  7  4  0  0  0  0
  1  9  1  0  0  0  0
  1 10  1  0  0  0  0
  1 11  1  0  0  0  0
  3 12  1  0  0  0  0
  4 13  1  0  0  0  0
  5 14  1  0  0  0  0
  6 15  1  0  0  0  0
M  END
> <id>
350645

> <casrn>
95-49-8

> <smiles (First)>
Cc1ccccc1Cl

> <Molecular weight>
126.58348083496094

> <name>
2-Chlorotoluene

> <Outcome>
0

> <Molecule (RDKit Mol) (InChI Code)>
InChI=1S/C7H7Cl/c1-6-4-2-3-5-7(6)8/h2-5H,1H3

> <reference>
ToxValDB

> <molecule_form>
not specified

$$$$

  Mrv1812 01171911372D          

 26 26  0  0  0  0            999 V2000
    1.2241    2.4144    0.0000 C   0  0  0  0  0  0  0  0  0  0  0  0
    1.2241    1.5894    0.0000 C   0  0  0  0  0  0  0  0  0  0  0  0
    1.9386    1.1769    0.0000 C   0  0  0  0  0  0  0  0  0  0  0  0
    0.5097    1.1769    0.0000 C   0  0  0  0  0  0  0  0  0  0  0  0
   -0.2048    1.5894    0.0000 C   0  0  0  0  0  0  0  0  0  0  0  0
   -0.9193    1.1769    0.0000 C   0  0  0  0  0  0  0  0  0  0  0  0
   -0.9193    0.3519    0.0000 C   0  0  0  0  0  0  0  0  0  0  0  0
   -0.2048   -0.0606    0.0000 C   0  0  0  0  0  0  0  0  0  0  0  0
    0.5097    0.3519    0.0000 C   0  0  0  0  0  0  0  0  0  0  0  0
   -0.2048   -0.8856    0.0000 C   0  0  0  0  0  0  0  0  0  0  0  0
    0.5097   -1.2981    0.0000 C   0  0  0  0  0  0  0  0  0  0  0  0
   -0.9193   -1.2981    0.0000 C   0  0  0  0  0  0  0  0  0  0  0  0
    2.0491    2.4144    0.0000 H   0  0  0  0  0  0  0  0  0  0  0  0
    1.2241    3.2394    0.0000 H   0  0  0  0  0  0  0  0  0  0  0  0
    0.3991    2.4144    0.0000 H   0  0  0  0  0  0  0  0  0  0  0  0
    1.9386    0.3519    0.0000 H   0  0  0  0  0  0  0  0  0  0  0  0
    2.6531    1.5894    0.0000 H   0  0  0  0  0  0  0  0  0  0  0  0
   -0.2048    2.4144    0.0000 H   0  0  0  0  0  0  0  0  0  0  0  0
   -1.6338    1.5894    0.0000 H   0  0  0  0  0  0  0  0  0  0  0  0
   -1.6338   -0.0606    0.0000 H   0  0  0  0  0  0  0  0  0  0  0  0
    1.2241   -0.0606    0.0000 H   0  0  0  0  0  0  0  0  0  0  0  0
    0.0972   -2.0126    0.0000 H   0  0  0  0  0  0  0  0  0  0  0  0
    1.2241   -1.7106    0.0000 H   0  0  0  0  0  0  0  0  0  0  0  0
    0.9222   -0.5836    0.0000 H   0  0  0  0  0  0  0  0  0  0  0  0
   -1.6338   -0.8856    0.0000 H   0  0  0  0  0  0  0  0  0  0  0  0
   -0.9193   -2.1231    0.0000 H   0  0  0  0  0  0  0  0  0  0  0  0
  1  2  1  0  0  0  0
  2  3  2  0  0  0  0
  2  4  1  0  0  0  0
  5  4  4  0  0  0  0
  6  5  4  0  0  0  0
  7  6  4  0  0  0  0
  8  7  4  0  0  0  0
  9  8  4  0  0  0  0
  8 10  1  0  0  0  0
 10 11  1  0  0  0  0
 10 12  2  0  0  0  0
  4  9  4  0  0  0  0
  1 13  1  0  0  0  0
  1 14  1  0  0  0  0
  1 15  1  0  0  0  0
  3 16  1  0  0  0  0
  3 17  1  0  0  0  0
  5 18  1  0  0  0  0
  6 19  1  0  0  0  0
  7 20  1  0  0  0  0
  9 21  1  0  0  0  0
 11 22  1  0  0  0  0
 11 23  1  0  0  0  0
 11 24  1  0  0  0  0
 12 25  1  0  0  0  0
 12 26  1  0  0  0  0
M  END
> <id>
911342

> <casrn>
3748-13-8

> <smiles (First)>
CC(=C)c1cccc(c1)C(C)=C

> <Molecular weight>
158.23956298828125

> <name>
1,3-Diisopropenylbenzene

> <Outcome>
1

> <Molecule (RDKit Mol) (InChI Code)>
InChI=1S/C12H14/c1-9(2)11-6-5-7-12(8-11)10(3)4/h5-8H,1,3H2,2,4H3

> <reference>
ToxValDB

> <molecule_form>
not specified

$$$$

  Mrv1812 01171911372D          

 33 34  0  0  0  0            999 V2000
    1.2375   -2.1434    0.0000 C   0  0  0  0  0  0  0  0  0  0  0  0
    0.8250   -1.4289    0.0000 C   0  0  0  0  0  0  0  0  0  0  0  0
    0.4125   -0.7144    0.0000 C   0  0  0  0  0  0  0  0  0  0  0  0
    0.1105   -1.8414    0.0000 C   0  0  0  0  0  0  0  0  0  0  0  0
   -0.6039   -1.4289    0.0000 C   0  0  0  0  0  0  0  0  0  0  0  0
   -1.3184   -1.8414    0.0000 C   0  0  0  0  0  0  0  0  0  0  0  0
   -1.3184   -2.6664    0.0000 C   0  0  0  0  0  0  0  0  0  0  0  0
   -2.0329   -3.0789    0.0000 O   0  0  0  0  0  0  0  0  0  0  0  0
   -0.6039   -3.0789    0.0000 C   0  0  0  0  0  0  0  0  0  0  0  0
    0.1105   -2.6664    0.0000 C   0  0  0  0  0  0  0  0  0  0  0  0
    1.5395   -1.0164    0.0000 C   0  0  0  0  0  0  0  0  0  0  0  0
    2.2539   -1.4289    0.0000 C   0  0  0  0  0  0  0  0  0  0  0  0
    2.9684   -1.0164    0.0000 C   0  0  0  0  0  0  0  0  0  0  0  0
    2.9684   -0.1914    0.0000 C   0  0  0  0  0  0  0  0  0  0  0  0
    3.6829    0.2211    0.0000 O   0  0  0  0  0  0  0  0  0  0  0  0
    2.2539    0.2211    0.0000 C   0  0  0  0  0  0  0  0  0  0  0  0
    1.5395   -0.1914    0.0000 C   0  0  0  0  0  0  0  0  0  0  0  0
    0.5230   -2.5559    0.0000 H   0  0  0  0  0  0  0  0  0  0  0  0
    1.6500   -2.8579    0.0000 H   0  0  0  0  0  0  0  0  0  0  0  0
    1.9520   -1.7309    0.0000 H   0  0  0  0  0  0  0  0  0  0  0  0
    1.1270   -0.3019    0.0000 H   0  0  0  0  0  0  0  0  0  0  0  0
   -0.0000    0.0000    0.0000 H   0  0  0  0  0  0  0  0  0  0  0  0
   -0.3020   -1.1269    0.0000 H   0  0  0  0  0  0  0  0  0  0  0  0
   -1.1062   -0.7744    0.0000 H   0  0  0  0  0  0  0  0  0  0  0  0
   -2.0329   -1.4289    0.0000 H   0  0  0  0  0  0  0  0  0  0  0  0
   -2.7474   -2.6664    0.0000 H   0  0  0  0  0  0  0  0  0  0  0  0
   -0.6039   -3.9039    0.0000 H   0  0  0  0  0  0  0  0  0  0  0  0
    0.4262   -3.4286    0.0000 H   0  0  0  0  0  0  0  0  0  0  0  0
    2.7562   -2.0834    0.0000 H   0  0  0  0  0  0  0  0  0  0  0  0
    3.6829   -1.4289    0.0000 H   0  0  0  0  0  0  0  0  0  0  0  0
    4.3974   -0.1914    0.0000 H   0  0  0  0  0  0  0  0  0  0  0  0
    2.2539    1.0461    0.0000 H   0  0  0  0  0  0  0  0  0  0  0  0
    1.2238    0.5708    0.0000 H   0  0  0  0  0  0  0  0  0  0  0  0
  1  2  1  0  0  0  0
  2  3  1  0  0  0  0
  2  4  1  0  0  0  0
  5  4  4  0  0  0  0
  6  5  4  0  0  0  0
  7  6  4  0  0  0  0
  7  8  1  0  0  0  0
  9  7  4  0  0  0  0
 10  9  4  0  0  0  0
  2 11  1  0  0  0  0
 12 11  4  0  0  0  0
 13 12  4  0  0  0  0
 14 13  4  0  0  0  0
 14 15  1  0  0  0  0
 16 14  4  0  0  0  0
 17 16  4  0  0  0  0
  4 10  4  0  0  0  0
 11 17  4  0  0  0  0
  1 18  1  0  0  0  0
  1 19  1  0  0  0  0
  1 20  1  0  0  0  0
  3 21  1  0  0  0  0
  3 22  1  0  0  0  0
  3 23  1  0  0  0  0
  5 24  1  0  0  0  0
  6 25  1  0  0  0  0
  8 26  1  0  0  0  0
  9 27  1  0  0  0  0
 10 28  1  0  0  0  0
 12 29  1  0  0  0  0
 13 30  1  0  0  0  0
 15 31  1  0  0  0  0
 16 32  1  0  0  0  0
 17 33  1  0  0  0  0
M  END
> <id>
802640

> <casrn>
80-05-7

> <smiles (First)>
CC(C)(c1ccc(O)cc1)c2ccc(O)cc2

> <Molecular weight>
228.28634643554688

> <name>
Bisphenol A

> <Outcome>
0

> <Molecule (RDKit Mol) (InChI Code)>
InChI=1S/C15H16O2/c1-15(2,11-3-7-13(16)8-4-11)12-5-9-14(17)10-6-12/h3-10,16-17H,1-2H3

> <reference>
ToxValDB

> <molecule_form>
not specified

$$$$

  Mrv1812 01171911372D          

 20 21  0  0  0  0            999 V2000
   -0.9803   -0.4228    0.0000 C   0  0  0  0  0  0  0  0  0  0  0  0
   -0.9803    0.4022    0.0000 C   0  0  0  0  0  0  0  0  0  0  0  0
   -0.2658    0.8147    0.0000 N   0  0  0  0  0  0  0  0  0  0  0  0
    0.4486    0.4022    0.0000 C   0  0  0  0  0  0  0  0  0  0  0  0
    0.4486   -0.4228    0.0000 C   0  0  0  0  0  0  0  0  0  0  0  0
   -0.2658   -0.8353    0.0000 N   0  0  0  0  0  0  0  0  0  0  0  0
   -0.4033   -0.2853    0.0000 C   0  0  0  0  0  0  0  0  0  0  0  0
   -0.4033    0.2647    0.0000 C   0  0  0  0  0  0  0  0  0  0  0  0
   -1.8039   -0.4707    0.0000 H   0  0  0  0  0  0  0  0  0  0  0  0
   -1.4336   -1.1121    0.0000 H   0  0  0  0  0  0  0  0  0  0  0  0
   -1.4336    1.0915    0.0000 H   0  0  0  0  0  0  0  0  0  0  0  0
   -1.8039    0.4502    0.0000 H   0  0  0  0  0  0  0  0  0  0  0  0
    1.2723    0.4502    0.0000 H   0  0  0  0  0  0  0  0  0  0  0  0
    0.9020    1.0915    0.0000 H   0  0  0  0  0  0  0  0  0  0  0  0
    0.9020   -1.1121    0.0000 H   0  0  0  0  0  0  0  0  0  0  0  0
    1.2723   -0.4707    0.0000 H   0  0  0  0  0  0  0  0  0  0  0  0
    0.3510    0.0488    0.0000 H   0  0  0  0  0  0  0  0  0  0  0  0
    0.0467    0.4062    0.0000 H   0  0  0  0  0  0  0  0  0  0  0  0
   -0.6855   -0.5105    0.0000 H   0  0  0  0  0  0  0  0  0  0  0  0
    0.2618   -0.2234    0.0000 H   0  0  0  0  0  0  0  0  0  0  0  0
  2  1  1  0  0  0  0
  3  2  1  0  0  0  0
  3  4  1  0  0  0  0
  4  5  1  0  0  0  0
  5  6  1  0  0  0  0
  6  7  1  0  0  0  0
  7  8  1  0  0  0  0
  1  6  1  0  0  0  0
  8  3  1  0  0  0  0
  1  9  1  0  0  0  0
  1 10  1  0  0  0  0
  2 11  1  0  0  0  0
  2 12  1  0  0  0  0
  4 13  1  0  0  0  0
  4 14  1  0  0  0  0
  5 15  1  0  0  0  0
  5 16  1  0  0  0  0
  7 17  1  0  0  0  0
  7 18  1  0  0  0  0
  8 19  1  0  0  0  0
  8 20  1  0  0  0  0
M  END
> <id>
254870

> <casrn>
280-57-9

> <smiles (First)>
C1CN2CCN1CC2

> <Molecular weight>
112.17288208007812

> <name>
1,4-Diazabicyclo[2.2.2]octane

> <Outcome>
0

> <Molecule (RDKit Mol) (InChI Code)>
InChI=1S/C6H12N2/c1-2-8-5-3-7(1)4-6-8/h1-6H2

> <reference>
ToxValDB

> <molecule_form>
not specified

$$$$

  Mrv1812 01171911372D          

 14 15  0  0  0  0            999 V2000
   -1.1467   -1.0198    0.0000 S   0  0  0  0  0  0  0  0  0  0  0  0
   -1.6316   -0.3524    0.0000 C   0  0  0  0  0  0  0  0  0  0  0  0
   -1.1467    0.3150    0.0000 N   0  0  0  0  0  0  0  0  0  0  0  0
   -0.3621    0.0601    0.0000 C   0  0  0  0  0  0  0  0  0  0  0  0
    0.3524    0.4726    0.0000 C   0  0  0  0  0  0  0  0  0  0  0  0
    1.0669    0.0601    0.0000 C   0  0  0  0  0  0  0  0  0  0  0  0
    1.0669   -0.7649    0.0000 C   0  0  0  0  0  0  0  0  0  0  0  0
    0.3524   -1.1774    0.0000 C   0  0  0  0  0  0  0  0  0  0  0  0
   -0.3621   -0.7649    0.0000 C   0  0  0  0  0  0  0  0  0  0  0  0
   -2.4566   -0.3524    0.0000 H   0  0  0  0  0  0  0  0  0  0  0  0
    0.3524    1.2976    0.0000 H   0  0  0  0  0  0  0  0  0  0  0  0
    1.7813    0.4726    0.0000 H   0  0  0  0  0  0  0  0  0  0  0  0
    1.7813   -1.1774    0.0000 H   0  0  0  0  0  0  0  0  0  0  0  0
    0.3524   -2.0024    0.0000 H   0  0  0  0  0  0  0  0  0  0  0  0
  2  1  4  0  0  0  0
  3  2  4  0  0  0  0
  4  3  4  0  0  0  0
  4  5  4  0  0  0  0
  5  6  4  0  0  0  0
  6  7  4  0  0  0  0
  7  8  4  0  0  0  0
  8  9  4  0  0  0  0
  1  9  4  0  0  0  0
  9  4  4  0  0  0  0
  2 10  1  0  0  0  0
  5 11  1  0  0  0  0
  6 12  1  0  0  0  0
  7 13  1  0  0  0  0
  8 14  1  0  0  0  0
M  END
> <id>
350099

> <casrn>
95-16-9

> <smiles (First)>
s1cnc2ccccc12

> <Molecular weight>
135.18629455566406

> <name>
Benzothiazole

> <Outcome>
1

> <Molecule (RDKit Mol) (InChI Code)>
InChI=1S/C7H5NS/c1-2-4-7-6(3-1)8-5-9-7/h1-5H

> <reference>
ToxValDB

> <molecule_form>
not specified

$$$$

  Mrv1812 01171911372D          

 20 19  0  0  0  0            999 V2000
    3.8571    0.1071    0.0000 C   0  0  0  0  0  0  0  0  0  0  0  0
    3.0321    0.1071    0.0000 C   0  0  0  0  0  0  0  0  0  0  0  0
    2.6196    0.8216    0.0000 O   0  0  0  0  0  0  0  0  0  0  0  0
    1.7946    0.8216    0.0000 P   0  0  0  0  0  0  0  0  0  0  0  0
    1.7946    1.6466    0.0000 S   0  0  0  0  0  0  0  0  0  0  0  0
    1.7946   -0.0034    0.0000 S   0  0  0  0  0  0  0  0  0  0  0  0
    0.9696    0.8216    0.0000 O   0  0  0  0  0  0  0  0  0  0  0  0
    0.5571    1.5361    0.0000 C   0  0  0  0  0  0  0  0  0  0  0  0
   -0.2679    1.5361    0.0000 C   0  0  0  0  0  0  0  0  0  0  0  0
    3.8571   -0.7179    0.0000 H   0  0  0  0  0  0  0  0  0  0  0  0
    4.6821    0.1071    0.0000 H   0  0  0  0  0  0  0  0  0  0  0  0
    3.8571    0.9321    0.0000 H   0  0  0  0  0  0  0  0  0  0  0  0
    2.3428   -0.3462    0.0000 H   0  0  0  0  0  0  0  0  0  0  0  0
    2.9841   -0.7165    0.0000 H   0  0  0  0  0  0  0  0  0  0  0  0
    2.5091    2.0591    0.0000 H   0  0  0  0  0  0  0  0  0  0  0  0
    1.2464    1.9894    0.0000 H   0  0  0  0  0  0  0  0  0  0  0  0
    0.6051    2.3597    0.0000 H   0  0  0  0  0  0  0  0  0  0  0  0
   -0.2679    2.3611    0.0000 H   0  0  0  0  0  0  0  0  0  0  0  0
   -1.0929    1.5361    0.0000 H   0  0  0  0  0  0  0  0  0  0  0  0
   -0.2679    0.7111    0.0000 H   0  0  0  0  0  0  0  0  0  0  0  0
  1  2  1  0  0  0  0
  2  3  1  0  0  0  0
  3  4  1  0  0  0  0
  4  5  1  0  0  0  0
  4  6  2  0  0  0  0
  4  7  1  0  0  0  0
  7  8  1  0  0  0  0
  8  9  1  0  0  0  0
  1 10  1  0  0  0  0
  1 11  1  0  0  0  0
  1 12  1  0  0  0  0
  2 13  1  0  0  0  0
  2 14  1  0  0  0  0
  5 15  1  0  0  0  0
  8 16  1  0  0  0  0
  8 17  1  0  0  0  0
  9 18  1  0  0  0  0
  9 19  1  0  0  0  0
  9 20  1  0  0  0  0
M  END
> <id>
802664

> <casrn>
298-06-6

> <smiles (First)>
CCO[P](S)(=S)OCC

> <Molecular weight>
186.23269653320312

> <name>
O,O-Diethyl dithiophosphate

> <Outcome>
1

> <Molecule (RDKit Mol) (InChI Code)>
InChI=1S/C4H11O2PS2/c1-3-5-7(8,9)6-4-2/h3-4H2,1-2H3,(H,8,9)

> <reference>
ToxValDB

> <molecule_form>
not specified

$$$$

  Mrv1812 01171911372D          

 16 15  0  0  0  0            999 V2000
    1.2690    1.5325    0.0000 C   0  0  0  0  0  0  0  0  0  0  0  0
    0.8565    0.8180    0.0000 C   0  0  0  0  0  0  0  0  0  0  0  0
    0.0315    0.8180    0.0000 C   0  0  0  0  0  0  0  0  0  0  0  0
    1.2690    0.1036    0.0000 C   0  0  0  0  0  0  0  0  0  0  0  0
    0.8565   -0.6109    0.0000 C   0  0  0  0  0  0  0  0  0  0  0  0
    1.2690   -1.3254    0.0000 Cl  0  0  0  0  0  0  0  0  0  0  0  0
    0.0315   -0.6109    0.0000 O   0  0  0  0  0  0  0  0  0  0  0  0
    1.9835    1.1200    0.0000 H   0  0  0  0  0  0  0  0  0  0  0  0
    1.6815    2.2470    0.0000 H   0  0  0  0  0  0  0  0  0  0  0  0
    0.5545    1.9450    0.0000 H   0  0  0  0  0  0  0  0  0  0  0  0
    0.4440    1.5325    0.0000 H   0  0  0  0  0  0  0  0  0  0  0  0
   -0.5519    1.4014    0.0000 H   0  0  0  0  0  0  0  0  0  0  0  0
   -0.6830    0.4055    0.0000 H   0  0  0  0  0  0  0  0  0  0  0  0
    0.2450    0.0211    0.0000 H   0  0  0  0  0  0  0  0  0  0  0  0
    2.0063   -0.2667    0.0000 H   0  0  0  0  0  0  0  0  0  0  0  0
    2.0063    0.4738    0.0000 H   0  0  0  0  0  0  0  0  0  0  0  0
  1  2  1  0  0  0  0
  2  3  1  0  0  0  0
  2  4  1  0  0  0  0
  4  5  1  0  0  0  0
  5  6  1  0  0  0  0
  5  7  2  0  0  0  0
  1  8  1  0  0  0  0
  1  9  1  0  0  0  0
  1 10  1  0  0  0  0
  2 11  1  0  0  0  0
  3 12  1  0  0  0  0
  3 13  1  0  0  0  0
  3 14  1  0  0  0  0
  4 15  1  0  0  0  0
  4 16  1  0  0  0  0
M  END
> <id>
203533

> <casrn>
108-12-3

> <smiles (First)>
CC(C)CC(Cl)=O

> <Molecular weight>
120.57736206054688

> <name>
Butanoyl chloride, 3-methyl-

> <Outcome>
1

> <Molecule (RDKit Mol) (InChI Code)>
InChI=1S/C5H9ClO/c1-4(2)3-5(6)7/h4H,3H2,1-2H3

> <reference>
ToxValDB

> <molecule_form>
not specified

$$$$

  Mrv1812 01171911372D          

 62 61  0  0  0  0            999 V2000
   -2.4498   -1.6672    0.0000 C   0  0  0  0  0  0  0  0  0  0  0  0
   -1.7353   -1.2547    0.0000 C   0  0  0  0  0  0  0  0  0  0  0  0
   -1.0209   -1.6672    0.0000 C   0  0  0  0  0  0  0  0  0  0  0  0
   -0.3064   -1.2547    0.0000 C   0  0  0  0  0  0  0  0  0  0  0  0
    0.4081   -1.6672    0.0000 C   0  0  0  0  0  0  0  0  0  0  0  0
    1.1225   -1.2547    0.0000 C   0  0  0  0  0  0  0  0  0  0  0  0
    1.8370   -1.6672    0.0000 C   0  0  0  0  0  0  0  0  0  0  0  0
    2.5515   -1.2547    0.0000 C   0  0  0  0  0  0  0  0  0  0  0  0
    3.2660   -1.6672    0.0000 C   0  0  0  0  0  0  0  0  0  0  0  0
    3.2660   -2.4922    0.0000 C   0  0  0  0  0  0  0  0  0  0  0  0
    3.9804   -1.2547    0.0000 C   0  0  0  0  0  0  0  0  0  0  0  0
    3.9804   -0.4297    0.0000 C   0  0  0  0  0  0  0  0  0  0  0  0
    4.6949   -1.6672    0.0000 C   0  0  0  0  0  0  0  0  0  0  0  0
    5.4094   -1.2547    0.0000 C   0  0  0  0  0  0  0  0  0  0  0  0
    6.1238   -1.6672    0.0000 C   0  0  0  0  0  0  0  0  0  0  0  0
    6.8383   -1.2547    0.0000 C   0  0  0  0  0  0  0  0  0  0  0  0
    7.5528   -1.6672    0.0000 C   0  0  0  0  0  0  0  0  0  0  0  0
    8.2673   -1.2547    0.0000 C   0  0  0  0  0  0  0  0  0  0  0  0
    8.9817   -1.6672    0.0000 C   0  0  0  0  0  0  0  0  0  0  0  0
    9.6962   -1.2547    0.0000 C   0  0  0  0  0  0  0  0  0  0  0  0
   -2.8623   -0.9527    0.0000 H   0  0  0  0  0  0  0  0  0  0  0  0
   -3.1643   -2.0797    0.0000 H   0  0  0  0  0  0  0  0  0  0  0  0
   -2.0373   -2.3816    0.0000 H   0  0  0  0  0  0  0  0  0  0  0  0
   -1.3651   -0.5174    0.0000 H   0  0  0  0  0  0  0  0  0  0  0  0
   -2.1056   -0.5174    0.0000 H   0  0  0  0  0  0  0  0  0  0  0  0
   -1.3911   -2.4044    0.0000 H   0  0  0  0  0  0  0  0  0  0  0  0
   -0.6506   -2.4044    0.0000 H   0  0  0  0  0  0  0  0  0  0  0  0
    0.0639   -0.5174    0.0000 H   0  0  0  0  0  0  0  0  0  0  0  0
   -0.6767   -0.5174    0.0000 H   0  0  0  0  0  0  0  0  0  0  0  0
    0.0378   -2.4044    0.0000 H   0  0  0  0  0  0  0  0  0  0  0  0
    0.7783   -2.4044    0.0000 H   0  0  0  0  0  0  0  0  0  0  0  0
    1.4928   -0.5174    0.0000 H   0  0  0  0  0  0  0  0  0  0  0  0
    0.7523   -0.5174    0.0000 H   0  0  0  0  0  0  0  0  0  0  0  0
    1.4668   -2.4044    0.0000 H   0  0  0  0  0  0  0  0  0  0  0  0
    2.2073   -2.4044    0.0000 H   0  0  0  0  0  0  0  0  0  0  0  0
    2.9217   -0.5174    0.0000 H   0  0  0  0  0  0  0  0  0  0  0  0
    2.1812   -0.5174    0.0000 H   0  0  0  0  0  0  0  0  0  0  0  0
    2.5515   -2.0797    0.0000 H   0  0  0  0  0  0  0  0  0  0  0  0
    2.6826   -3.0755    0.0000 H   0  0  0  0  0  0  0  0  0  0  0  0
    3.6785   -3.2066    0.0000 H   0  0  0  0  0  0  0  0  0  0  0  0
    4.0628   -2.2786    0.0000 H   0  0  0  0  0  0  0  0  0  0  0  0
    3.2660   -0.8422    0.0000 H   0  0  0  0  0  0  0  0  0  0  0  0
    4.7773   -0.6432    0.0000 H   0  0  0  0  0  0  0  0  0  0  0  0
    4.3929    0.2848    0.0000 H   0  0  0  0  0  0  0  0  0  0  0  0
    3.3971    0.1537    0.0000 H   0  0  0  0  0  0  0  0  0  0  0  0
    5.1917   -2.3258    0.0000 H   0  0  0  0  0  0  0  0  0  0  0  0
    4.6949   -0.8422    0.0000 H   0  0  0  0  0  0  0  0  0  0  0  0
    5.9062   -0.5960    0.0000 H   0  0  0  0  0  0  0  0  0  0  0  0
    5.4094   -2.0797    0.0000 H   0  0  0  0  0  0  0  0  0  0  0  0
    6.2671   -2.4796    0.0000 H   0  0  0  0  0  0  0  0  0  0  0  0
    6.7558   -2.1975    0.0000 H   0  0  0  0  0  0  0  0  0  0  0  0
    7.2086   -0.5174    0.0000 H   0  0  0  0  0  0  0  0  0  0  0  0
    6.4681   -0.5174    0.0000 H   0  0  0  0  0  0  0  0  0  0  0  0
    7.5877   -2.4914    0.0000 H   0  0  0  0  0  0  0  0  0  0  0  0
    8.2758   -2.0644    0.0000 H   0  0  0  0  0  0  0  0  0  0  0  0
    8.6375   -0.5174    0.0000 H   0  0  0  0  0  0  0  0  0  0  0  0
    7.8970   -0.5174    0.0000 H   0  0  0  0  0  0  0  0  0  0  0  0
    9.1195   -2.4806    0.0000 H   0  0  0  0  0  0  0  0  0  0  0  0
    9.6114   -2.2001    0.0000 H   0  0  0  0  0  0  0  0  0  0  0  0
   10.4770   -1.5211    0.0000 H   0  0  0  0  0  0  0  0  0  0  0  0
   10.1402   -0.5593    0.0000 H   0  0  0  0  0  0  0  0  0  0  0  0
    9.1260   -0.6584    0.0000 H   0  0  0  0  0  0  0  0  0  0  0  0
  1  2  1  0  0  0  0
  2  3  1  0  0  0  0
  3  4  1  0  0  0  0
  4  5  1  0  0  0  0
  5  6  1  0  0  0  0
  6  7  1  0  0  0  0
  7  8  1  0  0  0  0
  8  9  1  0  0  0  0
  9 10  1  0  0  0  0
  9 11  1  0  0  0  0
 11 12  1  0  0  0  0
 11 13  1  0  0  0  0
 13 14  1  0  0  0  0
 14 15  1  0  0  0  0
 15 16  1  0  0  0  0
 16 17  1  0  0  0  0
 17 18  1  0  0  0  0
 18 19  1  0  0  0  0
 19 20  1  0  0  0  0
  1 21  1  0  0  0  0
  1 22  1  0  0  0  0
  1 23  1  0  0  0  0
  2 24  1  0  0  0  0
  2 25  1  0  0  0  0
  3 26  1  0  0  0  0
  3 27  1  0  0  0  0
  4 28  1  0  0  0  0
  4 29  1  0  0  0  0
  5 30  1  0  0  0  0
  5 31  1  0  0  0  0
  6 32  1  0  0  0  0
  6 33  1  0  0  0  0
  7 34  1  0  0  0  0
  7 35  1  0  0  0  0
  8 36  1  0  0  0  0
  8 37  1  0  0  0  0
  9 38  1  0  0  0  0
 10 39  1  0  0  0  0
 10 40  1  0  0  0  0
 10 41  1  0  0  0  0
 11 42  1  0  0  0  0
 12 43  1  0  0  0  0
 12 44  1  0  0  0  0
 12 45  1  0  0  0  0
 13 46  1  0  0  0  0
 13 47  1  0  0  0  0
 14 48  1  0  0  0  0
 14 49  1  0  0  0  0
 15 50  1  0  0  0  0
 15 51  1  0  0  0  0
 16 52  1  0  0  0  0
 16 53  1  0  0  0  0
 17 54  1  0  0  0  0
 17 55  1  0  0  0  0
 18 56  1  0  0  0  0
 18 57  1  0  0  0  0
 19 58  1  0  0  0  0
 19 59  1  0  0  0  0
 20 60  1  0  0  0  0
 20 61  1  0  0  0  0
 20 62  1  0  0  0  0
M  END
> <id>
302157; 906166; 906174; 906175

> <casrn>
68649-11-6

> <smiles (First)>
CCCCCCCCC(C)C(C)CCCCCCCC

> <Molecular weight>
282.5474853515625

> <name>
1-Decene, dimer, hydrogenated

> <Outcome>
1

> <Molecule (RDKit Mol) (InChI Code)>
InChI=1S/C20H42/c1-5-7-9-11-13-15-17-19(3)20(4)18-16-14-12-10-8-6-2/h19-20H,5-18H2,1-4H3

> <reference>
ToxValDB

> <molecule_form>
not specified

$$$$

  Mrv1812 01171911372D          

 14 14  0  0  0  0            999 V2000
    2.2576    0.8113    0.0000 F   0  0  0  0  0  0  0  0  0  0  0  0
    1.5432    0.3988    0.0000 C   0  0  0  0  0  0  0  0  0  0  0  0
    1.1307    1.1133    0.0000 F   0  0  0  0  0  0  0  0  0  0  0  0
    1.9557   -0.3157    0.0000 F   0  0  0  0  0  0  0  0  0  0  0  0
    0.8287   -0.0137    0.0000 C   0  0  0  0  0  0  0  0  0  0  0  0
    0.1142    0.3988    0.0000 C   0  0  0  0  0  0  0  0  0  0  0  0
   -0.6002   -0.0137    0.0000 C   0  0  0  0  0  0  0  0  0  0  0  0
   -0.6002   -0.8387    0.0000 C   0  0  0  0  0  0  0  0  0  0  0  0
   -1.3147   -1.2512    0.0000 Cl  0  0  0  0  0  0  0  0  0  0  0  0
    0.1142   -1.2512    0.0000 N   0  0  0  0  0  0  0  0  0  0  0  0
    0.8287   -0.8387    0.0000 C   0  0  0  0  0  0  0  0  0  0  0  0
    0.1142    1.2238    0.0000 H   0  0  0  0  0  0  0  0  0  0  0  0
   -1.3147    0.3988    0.0000 H   0  0  0  0  0  0  0  0  0  0  0  0
    1.5432   -1.2512    0.0000 H   0  0  0  0  0  0  0  0  0  0  0  0
  1  2  1  0  0  0  0
  2  3  1  0  0  0  0
  2  4  1  0  0  0  0
  2  5  1  0  0  0  0
  6  5  4  0  0  0  0
  7  6  4  0  0  0  0
  8  7  4  0  0  0  0
  8  9  1  0  0  0  0
 10  8  4  0  0  0  0
 11 10  4  0  0  0  0
  5 11  4  0  0  0  0
  6 12  1  0  0  0  0
  7 13  1  0  0  0  0
 11 14  1  0  0  0  0
M  END
> <id>
266441

> <casrn>
52334-81-3

> <smiles (First)>
FC(F)(F)c1ccc(Cl)nc1

> <Molecular weight>
181.54293823242188

> <name>
Pyridine, 2-chloro-5-(trifluoromethyl)-

> <Outcome>
1

> <Molecule (RDKit Mol) (InChI Code)>
InChI=1S/C6H3ClF3N/c7-5-2-1-4(3-11-5)6(8,9)10/h1-3H

> <reference>
ToxValDB

> <molecule_form>
not specified

$$$$

  Mrv1812 01171911372D          

 34 33  0  0  0  0            999 V2000
    4.3216   -2.3703    0.0000 C   0  0  0  0  0  0  0  0  0  0  0  0
    3.4966   -2.3703    0.0000 C   0  0  0  0  0  0  0  0  0  0  0  0
    3.0841   -1.6558    0.0000 C   0  0  0  0  0  0  0  0  0  0  0  0
    3.7986   -1.2433    0.0000 C   0  0  0  0  0  0  0  0  0  0  0  0
    2.3696   -2.0683    0.0000 C   0  0  0  0  0  0  0  0  0  0  0  0
    2.6716   -0.9413    0.0000 O   0  0  0  0  0  0  0  0  0  0  0  0
    1.8466   -0.9413    0.0000 O   0  0  0  0  0  0  0  0  0  0  0  0
    1.4341   -0.2269    0.0000 C   0  0  0  0  0  0  0  0  0  0  0  0
    2.1486    0.1856    0.0000 C   0  0  0  0  0  0  0  0  0  0  0  0
    0.7196   -0.6394    0.0000 C   0  0  0  0  0  0  0  0  0  0  0  0
    1.0216    0.4876    0.0000 C   0  0  0  0  0  0  0  0  0  0  0  0
    0.1966    0.4876    0.0000 C   0  0  0  0  0  0  0  0  0  0  0  0
    4.3216   -3.1953    0.0000 H   0  0  0  0  0  0  0  0  0  0  0  0
    5.1466   -2.3703    0.0000 H   0  0  0  0  0  0  0  0  0  0  0  0
    4.3216   -1.5453    0.0000 H   0  0  0  0  0  0  0  0  0  0  0  0
    2.8073   -2.8236    0.0000 H   0  0  0  0  0  0  0  0  0  0  0  0
    3.4486   -3.1939    0.0000 H   0  0  0  0  0  0  0  0  0  0  0  0
    4.5130   -0.8308    0.0000 H   0  0  0  0  0  0  0  0  0  0  0  0
    3.7986   -0.4183    0.0000 H   0  0  0  0  0  0  0  0  0  0  0  0
    3.0841   -0.8308    0.0000 H   0  0  0  0  0  0  0  0  0  0  0  0
    2.2616   -1.2504    0.0000 H   0  0  0  0  0  0  0  0  0  0  0  0
    1.5726   -1.8554    0.0000 H   0  0  0  0  0  0  0  0  0  0  0  0
    1.8682   -2.7234    0.0000 H   0  0  0  0  0  0  0  0  0  0  0  0
    2.5611   -0.5288    0.0000 H   0  0  0  0  0  0  0  0  0  0  0  0
    2.8630    0.5981    0.0000 H   0  0  0  0  0  0  0  0  0  0  0  0
    1.7361    0.9001    0.0000 H   0  0  0  0  0  0  0  0  0  0  0  0
    0.3071    0.0751    0.0000 H   0  0  0  0  0  0  0  0  0  0  0  0
    0.0051   -1.0519    0.0000 H   0  0  0  0  0  0  0  0  0  0  0  0
    1.1321   -1.3538    0.0000 H   0  0  0  0  0  0  0  0  0  0  0  0
    0.8081    1.2845    0.0000 H   0  0  0  0  0  0  0  0  0  0  0  0
    1.8185    0.2741    0.0000 H   0  0  0  0  0  0  0  0  0  0  0  0
    0.4618    1.2688    0.0000 H   0  0  0  0  0  0  0  0  0  0  0  0
   -0.4579    0.9898    0.0000 H   0  0  0  0  0  0  0  0  0  0  0  0
   -0.4894    0.0292    0.0000 H   0  0  0  0  0  0  0  0  0  0  0  0
  1  2  1  0  0  0  0
  2  3  1  0  0  0  0
  3  4  1  0  0  0  0
  3  5  1  0  0  0  0
  3  6  1  0  0  0  0
  6  7  1  0  0  0  0
  7  8  1  0  0  0  0
  8  9  1  0  0  0  0
  8 10  1  0  0  0  0
  8 11  1  0  0  0  0
 11 12  1  0  0  0  0
  1 13  1  0  0  0  0
  1 14  1  0  0  0  0
  1 15  1  0  0  0  0
  2 16  1  0  0  0  0
  2 17  1  0  0  0  0
  4 18  1  0  0  0  0
  4 19  1  0  0  0  0
  4 20  1  0  0  0  0
  5 21  1  0  0  0  0
  5 22  1  0  0  0  0
  5 23  1  0  0  0  0
  9 24  1  0  0  0  0
  9 25  1  0  0  0  0
  9 26  1  0  0  0  0
 10 27  1  0  0  0  0
 10 28  1  0  0  0  0
 10 29  1  0  0  0  0
 11 30  1  0  0  0  0
 11 31  1  0  0  0  0
 12 32  1  0  0  0  0
 12 33  1  0  0  0  0
 12 34  1  0  0  0  0
M  END
> <id>
199989

> <casrn>
10508-09-5

> <smiles (First)>
CCC(C)(C)OOC(C)(C)CC

> <Molecular weight>
174.28048706054688

> <name>
Bis(2-methylbutan-2-yl) peroxide

> <Outcome>
0

> <Molecule (RDKit Mol) (InChI Code)>
InChI=1S/C10H22O2/c1-7-9(3,4)11-12-10(5,6)8-2/h7-8H2,1-6H3

> <reference>
ToxValDB

> <molecule_form>
not specified

$$$$

  Mrv1812 01171911372D          

 23 23  0  0  0  0            999 V2000
    2.0059    0.9193    0.0000 C   0  0  0  0  0  0  0  0  0  0  0  0
    1.2914    1.3318    0.0000 C   0  0  0  0  0  0  0  0  0  0  0  0
    0.5769    0.9193    0.0000 C   0  0  0  0  0  0  0  0  0  0  0  0
   -0.1375    1.3318    0.0000 C   0  0  0  0  0  0  0  0  0  0  0  0
   -0.8520    0.9193    0.0000 C   0  0  0  0  0  0  0  0  0  0  0  0
   -0.8520    0.0943    0.0000 C   0  0  0  0  0  0  0  0  0  0  0  0
   -0.1375   -0.3182    0.0000 C   0  0  0  0  0  0  0  0  0  0  0  0
   -0.1375   -1.1432    0.0000 C   0  0  0  0  0  0  0  0  0  0  0  0
    0.5769    0.0943    0.0000 C   0  0  0  0  0  0  0  0  0  0  0  0
    1.2914   -0.3182    0.0000 N   0  0  0  0  0  0  0  0  0  0  0  0
    1.5934    0.2048    0.0000 H   0  0  0  0  0  0  0  0  0  0  0  0
    2.7204    0.5068    0.0000 H   0  0  0  0  0  0  0  0  0  0  0  0
    2.4184    1.6338    0.0000 H   0  0  0  0  0  0  0  0  0  0  0  0
    1.6617    2.0691    0.0000 H   0  0  0  0  0  0  0  0  0  0  0  0
    0.9211    2.0691    0.0000 H   0  0  0  0  0  0  0  0  0  0  0  0
   -0.1375    2.1568    0.0000 H   0  0  0  0  0  0  0  0  0  0  0  0
   -1.5665    1.3318    0.0000 H   0  0  0  0  0  0  0  0  0  0  0  0
   -1.5665   -0.3182    0.0000 H   0  0  0  0  0  0  0  0  0  0  0  0
   -0.9625   -1.1432    0.0000 H   0  0  0  0  0  0  0  0  0  0  0  0
   -0.1375   -1.9682    0.0000 H   0  0  0  0  0  0  0  0  0  0  0  0
    0.6875   -1.1432    0.0000 H   0  0  0  0  0  0  0  0  0  0  0  0
    1.0779   -1.1151    0.0000 H   0  0  0  0  0  0  0  0  0  0  0  0
    1.8748   -0.9016    0.0000 H   0  0  0  0  0  0  0  0  0  0  0  0
  1  2  1  0  0  0  0
  2  3  1  0  0  0  0
  4  3  4  0  0  0  0
  5  4  4  0  0  0  0
  6  5  4  0  0  0  0
  7  6  4  0  0  0  0
  7  8  1  0  0  0  0
  9  7  4  0  0  0  0
  9 10  1  0  0  0  0
  3  9  4  0  0  0  0
  1 11  1  0  0  0  0
  1 12  1  0  0  0  0
  1 13  1  0  0  0  0
  2 14  1  0  0  0  0
  2 15  1  0  0  0  0
  4 16  1  0  0  0  0
  5 17  1  0  0  0  0
  6 18  1  0  0  0  0
  8 19  1  0  0  0  0
  8 20  1  0  0  0  0
  8 21  1  0  0  0  0
 10 22  1  0  0  0  0
 10 23  1  0  0  0  0
M  END
> <id>
249102

> <casrn>
24549-06-2

> <smiles (First)>
CCc1cccc(C)c1N

> <Molecular weight>
135.2062225341797

> <name>
2-Ethyl-6-methylaniline

> <Outcome>
1

> <Molecule (RDKit Mol) (InChI Code)>
InChI=1S/C9H13N/c1-3-8-6-4-5-7(2)9(8)10/h4-6H,3,10H2,1-2H3

> <reference>
ToxValDB

> <molecule_form>
not specified

$$$$

  Mrv1812 01171911372D          

 20 20  0  0  0  0            999 V2000
    2.2595   -0.0206    0.0000 C   0  0  0  0  0  0  0  0  0  0  0  0
    1.5450    0.3919    0.0000 N   0  0  0  0  0  0  0  0  0  0  0  0
    1.5450    1.2169    0.0000 C   0  0  0  0  0  0  0  0  0  0  0  0
    0.8305   -0.0206    0.0000 C   0  0  0  0  0  0  0  0  0  0  0  0
    0.1161    0.3919    0.0000 C   0  0  0  0  0  0  0  0  0  0  0  0
   -0.5984   -0.0206    0.0000 C   0  0  0  0  0  0  0  0  0  0  0  0
   -0.5984   -0.8456    0.0000 C   0  0  0  0  0  0  0  0  0  0  0  0
    0.1161   -1.2581    0.0000 C   0  0  0  0  0  0  0  0  0  0  0  0
    0.8305   -0.8456    0.0000 C   0  0  0  0  0  0  0  0  0  0  0  0
    1.8470   -0.7351    0.0000 H   0  0  0  0  0  0  0  0  0  0  0  0
    2.9740   -0.4331    0.0000 H   0  0  0  0  0  0  0  0  0  0  0  0
    2.6720    0.6939    0.0000 H   0  0  0  0  0  0  0  0  0  0  0  0
    2.3700    1.2169    0.0000 H   0  0  0  0  0  0  0  0  0  0  0  0
    1.5450    2.0419    0.0000 H   0  0  0  0  0  0  0  0  0  0  0  0
    0.7200    1.2169    0.0000 H   0  0  0  0  0  0  0  0  0  0  0  0
    0.1161    1.2169    0.0000 H   0  0  0  0  0  0  0  0  0  0  0  0
   -1.3129    0.3919    0.0000 H   0  0  0  0  0  0  0  0  0  0  0  0
   -1.3129   -1.2581    0.0000 H   0  0  0  0  0  0  0  0  0  0  0  0
    0.1161   -2.0831    0.0000 H   0  0  0  0  0  0  0  0  0  0  0  0
    1.5450   -1.2581    0.0000 H   0  0  0  0  0  0  0  0  0  0  0  0
  1  2  1  0  0  0  0
  2  3  1  0  0  0  0
  2  4  1  0  0  0  0
  5  4  4  0  0  0  0
  6  5  4  0  0  0  0
  7  6  4  0  0  0  0
  8  7  4  0  0  0  0
  9  8  4  0  0  0  0
  4  9  4  0  0  0  0
  1 10  1  0  0  0  0
  1 11  1  0  0  0  0
  1 12  1  0  0  0  0
  3 13  1  0  0  0  0
  3 14  1  0  0  0  0
  3 15  1  0  0  0  0
  5 16  1  0  0  0  0
  6 17  1  0  0  0  0
  7 18  1  0  0  0  0
  8 19  1  0  0  0  0
  9 20  1  0  0  0  0
M  END
> <id>
218189

> <casrn>
121-69-7

> <smiles (First)>
CN(C)c1ccccc1

> <Molecular weight>
121.17964172363281

> <name>
N,N-Dimethylaniline

> <Outcome>
0

> <Molecule (RDKit Mol) (InChI Code)>
InChI=1S/C8H11N/c1-9(2)8-6-4-3-5-7-8/h3-7H,1-2H3

> <reference>
ToxValDB

> <molecule_form>
not specified

$$$$

  Mrv1812 01171911372D          

 13 12  0  0  0  0            999 V2000
    1.1797    1.1797    0.0000 C   0  0  0  0  0  0  0  0  0  0  0  0
    0.7672    0.4652    0.0000 C   0  0  0  0  0  0  0  0  0  0  0  0
    1.1797   -0.2493    0.0000 C   0  0  0  0  0  0  0  0  0  0  0  0
    0.7672   -0.9637    0.0000 N   0  0  0  0  0  0  0  0  0  0  0  0
    1.1797   -1.6782    0.0000 O   0  0  0  0  0  0  0  0  0  0  0  0
   -0.0578   -0.9637    0.0000 O   0  0  0  0  0  0  0  0  0  0  0  0
    1.8942    0.7672    0.0000 H   0  0  0  0  0  0  0  0  0  0  0  0
    1.5922    1.8941    0.0000 H   0  0  0  0  0  0  0  0  0  0  0  0
    0.4652    1.5922    0.0000 H   0  0  0  0  0  0  0  0  0  0  0  0
    0.0300    0.8355    0.0000 H   0  0  0  0  0  0  0  0  0  0  0  0
    0.0300    0.0949    0.0000 H   0  0  0  0  0  0  0  0  0  0  0  0
    1.9169   -0.6195    0.0000 H   0  0  0  0  0  0  0  0  0  0  0  0
    1.9169    0.1210    0.0000 H   0  0  0  0  0  0  0  0  0  0  0  0
  1  2  1  0  0  0  0
  2  3  1  0  0  0  0
  3  4  1  0  0  0  0
  4  5  2  0  0  0  0
  4  6  2  0  0  0  0
  1  7  1  0  0  0  0
  1  8  1  0  0  0  0
  1  9  1  0  0  0  0
  2 10  1  0  0  0  0
  2 11  1  0  0  0  0
  3 12  1  0  0  0  0
  3 13  1  0  0  0  0
M  END
> <id>
203420

> <casrn>
108-03-2

> <smiles (First)>
CCC[N+]([O-])=O

> <Molecular weight>
89.09317779541016

> <name>
1-Nitropropane

> <Outcome>
1

> <Molecule (RDKit Mol) (InChI Code)>
InChI=1S/C3H7NO2/c1-2-3-4(5)6/h2-3H2,1H3

> <reference>
ToxValDB

> <molecule_form>
not specified

$$$$

  Mrv1812 01171911372D          

 24 23  0  0  0  0            999 V2000
    0.6679    1.9882    0.0000 C   0  0  0  0  0  0  0  0  0  0  0  0
    0.6679    1.1632    0.0000 C   0  0  0  0  0  0  0  0  0  0  0  0
   -0.0466    0.7507    0.0000 C   0  0  0  0  0  0  0  0  0  0  0  0
   -0.7611    1.1632    0.0000 N   0  0  0  0  0  0  0  0  0  0  0  0
    1.3823    0.7507    0.0000 C   0  0  0  0  0  0  0  0  0  0  0  0
    2.0968    1.1632    0.0000 C   0  0  0  0  0  0  0  0  0  0  0  0
    2.8113    0.7507    0.0000 C   0  0  0  0  0  0  0  0  0  0  0  0
    3.5257    1.1632    0.0000 N   0  0  0  0  0  0  0  0  0  0  0  0
    1.4929    1.9882    0.0000 H   0  0  0  0  0  0  0  0  0  0  0  0
    0.6679    2.8132    0.0000 H   0  0  0  0  0  0  0  0  0  0  0  0
   -0.1571    1.9882    0.0000 H   0  0  0  0  0  0  0  0  0  0  0  0
   -0.0466    1.5757    0.0000 H   0  0  0  0  0  0  0  0  0  0  0  0
   -0.4169    0.0134    0.0000 H   0  0  0  0  0  0  0  0  0  0  0  0
    0.3237    0.0134    0.0000 H   0  0  0  0  0  0  0  0  0  0  0  0
   -1.4504    1.6165    0.0000 H   0  0  0  0  0  0  0  0  0  0  0  0
   -1.4504    0.7098    0.0000 H   0  0  0  0  0  0  0  0  0  0  0  0
    1.0121    0.0134    0.0000 H   0  0  0  0  0  0  0  0  0  0  0  0
    1.7526    0.0134    0.0000 H   0  0  0  0  0  0  0  0  0  0  0  0
    2.4671    1.9004    0.0000 H   0  0  0  0  0  0  0  0  0  0  0  0
    1.7265    1.9004    0.0000 H   0  0  0  0  0  0  0  0  0  0  0  0
    2.4410    0.0134    0.0000 H   0  0  0  0  0  0  0  0  0  0  0  0
    3.1815    0.0134    0.0000 H   0  0  0  0  0  0  0  0  0  0  0  0
    4.2402    0.7507    0.0000 H   0  0  0  0  0  0  0  0  0  0  0  0
    3.5257    1.9882    0.0000 H   0  0  0  0  0  0  0  0  0  0  0  0
  1  2  1  0  0  0  0
  2  3  1  0  0  0  0
  3  4  1  0  0  0  0
  2  5  1  0  0  0  0
  5  6  1  0  0  0  0
  6  7  1  0  0  0  0
  7  8  1  0  0  0  0
  1  9  1  0  0  0  0
  1 10  1  0  0  0  0
  1 11  1  0  0  0  0
  2 12  1  0  0  0  0
  3 13  1  0  0  0  0
  3 14  1  0  0  0  0
  4 15  1  0  0  0  0
  4 16  1  0  0  0  0
  5 17  1  0  0  0  0
  5 18  1  0  0  0  0
  6 19  1  0  0  0  0
  6 20  1  0  0  0  0
  7 21  1  0  0  0  0
  7 22  1  0  0  0  0
  8 23  1  0  0  0  0
  8 24  1  0  0  0  0
M  END
> <id>
239691

> <casrn>
15520-10-2

> <smiles (First)>
CC(CN)CCCN

> <Molecular weight>
116.20464324951172

> <name>
2-Methylpentanediamine

> <Outcome>
1

> <Molecule (RDKit Mol) (InChI Code)>
InChI=1S/C6H16N2/c1-6(5-8)3-2-4-7/h6H,2-5,7-8H2,1H3

> <reference>
ToxValDB

> <molecule_form>
not specified

$$$$

  Mrv1812 01171911372D          

 46 47  0  0  0  0            999 V2000
   -0.4043   -0.2267    0.0000 C   0  0  0  0  0  0  0  0  0  0  0  0
   -1.1187   -0.6392    0.0000 C   0  0  0  0  0  0  0  0  0  0  0  0
   -1.8332   -0.2267    0.0000 C   0  0  0  0  0  0  0  0  0  0  0  0
   -1.1187   -1.4642    0.0000 C   0  0  0  0  0  0  0  0  0  0  0  0
   -0.4043   -1.8767    0.0000 C   0  0  0  0  0  0  0  0  0  0  0  0
    0.3102   -1.4642    0.0000 C   0  0  0  0  0  0  0  0  0  0  0  0
    1.0247   -1.8767    0.0000 C   0  0  0  0  0  0  0  0  0  0  0  0
    1.7392   -1.4642    0.0000 C   0  0  0  0  0  0  0  0  0  0  0  0
    2.4536   -1.8767    0.0000 C   0  0  0  0  0  0  0  0  0  0  0  0
    2.4536   -2.7017    0.0000 C   0  0  0  0  0  0  0  0  0  0  0  0
    1.7392   -3.1142    0.0000 C   0  0  0  0  0  0  0  0  0  0  0  0
    1.0247   -2.7017    0.0000 C   0  0  0  0  0  0  0  0  0  0  0  0
    0.3102   -3.1142    0.0000 C   0  0  0  0  0  0  0  0  0  0  0  0
   -0.4043   -2.7017    0.0000 C   0  0  0  0  0  0  0  0  0  0  0  0
   -1.1187   -3.1142    0.0000 C   0  0  0  0  0  0  0  0  0  0  0  0
   -1.8332   -2.7017    0.0000 C   0  0  0  0  0  0  0  0  0  0  0  0
   -2.5477   -3.1142    0.0000 C   0  0  0  0  0  0  0  0  0  0  0  0
   -1.8332   -1.8767    0.0000 C   0  0  0  0  0  0  0  0  0  0  0  0
    0.3102   -3.9392    0.0000 S   0  0  0  0  0  0  0  0  0  0  0  0
   -0.5148   -3.9392    0.0000 O   0  0  0  0  0  0  0  0  0  0  0  0
    1.1352   -3.9392    0.0000 O   0  0  0  0  0  0  0  0  0  0  0  0
    0.3102   -4.7642    0.0000 O   0  0  0  0  0  0  0  0  0  0  0  0
    0.0082   -0.9412    0.0000 H   0  0  0  0  0  0  0  0  0  0  0  0
    0.3102    0.1858    0.0000 H   0  0  0  0  0  0  0  0  0  0  0  0
   -0.8168    0.4878    0.0000 H   0  0  0  0  0  0  0  0  0  0  0  0
   -1.1187    0.1858    0.0000 H   0  0  0  0  0  0  0  0  0  0  0  0
   -2.0467    0.5702    0.0000 H   0  0  0  0  0  0  0  0  0  0  0  0
   -2.6582   -0.2267    0.0000 H   0  0  0  0  0  0  0  0  0  0  0  0
   -2.0467   -1.0236    0.0000 H   0  0  0  0  0  0  0  0  0  0  0  0
   -1.8332   -1.0517    0.0000 H   0  0  0  0  0  0  0  0  0  0  0  0
   -1.1187   -2.2892    0.0000 H   0  0  0  0  0  0  0  0  0  0  0  0
    0.8936   -0.8808    0.0000 H   0  0  0  0  0  0  0  0  0  0  0  0
    1.7392   -0.6392    0.0000 H   0  0  0  0  0  0  0  0  0  0  0  0
    3.1681   -1.4642    0.0000 H   0  0  0  0  0  0  0  0  0  0  0  0
    3.1681   -3.1142    0.0000 H   0  0  0  0  0  0  0  0  0  0  0  0
    1.7392   -3.9392    0.0000 H   0  0  0  0  0  0  0  0  0  0  0  0
   -1.4890   -3.8515    0.0000 H   0  0  0  0  0  0  0  0  0  0  0  0
   -0.7485   -3.8515    0.0000 H   0  0  0  0  0  0  0  0  0  0  0  0
   -1.8332   -3.5267    0.0000 H   0  0  0  0  0  0  0  0  0  0  0  0
   -2.7612   -2.3173    0.0000 H   0  0  0  0  0  0  0  0  0  0  0  0
   -3.3727   -3.1142    0.0000 H   0  0  0  0  0  0  0  0  0  0  0  0
   -2.7612   -3.9111    0.0000 H   0  0  0  0  0  0  0  0  0  0  0  0
   -2.5134   -1.4099    0.0000 H   0  0  0  0  0  0  0  0  0  0  0  0
   -2.6520   -1.9776    0.0000 H   0  0  0  0  0  0  0  0  0  0  0  0
   -2.3797   -2.4947    0.0000 H   0  0  0  0  0  0  0  0  0  0  0  0
   -0.6622   -4.7509    0.0000 H   0  0  0  0  0  0  0  0  0  0  0  0
  1  2  1  0  0  0  0
  2  3  1  0  0  0  0
  2  4  1  0  0  0  0
  4  5  1  0  0  0  0
  6  5  4  0  0  0  0
  7  6  4  0  0  0  0
  7  8  4  0  0  0  0
  8  9  4  0  0  0  0
  9 10  4  0  0  0  0
 10 11  4  0  0  0  0
 11 12  4  0  0  0  0
 13 12  4  0  0  0  0
 14 13  4  0  0  0  0
 14 15  1  0  0  0  0
 15 16  1  0  0  0  0
 16 17  1  0  0  0  0
 16 18  1  0  0  0  0
 13 19  1  0  0  0  0
 19 20  1  0  0  0  0
 19 21  2  0  0  0  0
 19 22  2  0  0  0  0
  5 14  4  0  0  0  0
 12  7  4  0  0  0  0
  1 23  1  0  0  0  0
  1 24  1  0  0  0  0
  1 25  1  0  0  0  0
  2 26  1  0  0  0  0
  3 27  1  0  0  0  0
  3 28  1  0  0  0  0
  3 29  1  0  0  0  0
  4 30  1  0  0  0  0
  4 31  1  0  0  0  0
  6 32  1  0  0  0  0
  8 33  1  0  0  0  0
  9 34  1  0  0  0  0
 10 35  1  0  0  0  0
 11 36  1  0  0  0  0
 15 37  1  0  0  0  0
 15 38  1  0  0  0  0
 16 39  1  0  0  0  0
 17 40  1  0  0  0  0
 17 41  1  0  0  0  0
 17 42  1  0  0  0  0
 18 43  1  0  0  0  0
 18 44  1  0  0  0  0
 18 45  1  0  0  0  0
 20 46  1  0  0  0  0
M  END
> <id>
253569; 912352

> <casrn>
27213-90-7

> <smiles (First)>
[Na+].CC(C)Cc1cc2ccccc2c(c1CC(C)C)[S]([O-])(=O)=O

> <Molecular weight>
319.43841552734375

> <name>
Diisobutylnaphthalenesulfonic acid sodium salt

> <Outcome>
1

> <Molecule (RDKit Mol) (InChI Code)>
InChI=1S/C18H24O3S/c1-12(2)9-15-11-14-7-5-6-8-16(14)18(22(19,20)21)17(15)10-13(3)4/h5-8,11-13H,9-10H2,1-4H3,(H,19,20,21)

> <reference>
ToxValDB

> <molecule_form>
not specified

$$$$

  Mrv1812 01171911372D          

 18 17  0  0  0  0            999 V2000
   -0.7144   -0.0000    0.0000 N   0  0  0  0  0  0  0  0  0  0  0  0
    0.0000    0.4125    0.0000 C   0  0  0  0  0  0  0  0  0  0  0  0
    0.7145   -0.0000    0.0000 C   0  0  0  0  0  0  0  0  0  0  0  0
    1.4290    0.4125    0.0000 C   0  0  0  0  0  0  0  0  0  0  0  0
    2.1434   -0.0000    0.0000 C   0  0  0  0  0  0  0  0  0  0  0  0
    2.8579    0.4125    0.0000 N   0  0  0  0  0  0  0  0  0  0  0  0
   -1.4289    0.4125    0.0000 H   0  0  0  0  0  0  0  0  0  0  0  0
   -0.7144   -0.8250    0.0000 H   0  0  0  0  0  0  0  0  0  0  0  0
    0.3703    1.1497    0.0000 H   0  0  0  0  0  0  0  0  0  0  0  0
   -0.3702    1.1497    0.0000 H   0  0  0  0  0  0  0  0  0  0  0  0
    0.3442   -0.7372    0.0000 H   0  0  0  0  0  0  0  0  0  0  0  0
    1.0848   -0.7372    0.0000 H   0  0  0  0  0  0  0  0  0  0  0  0
    1.7992    1.1497    0.0000 H   0  0  0  0  0  0  0  0  0  0  0  0
    1.0587    1.1497    0.0000 H   0  0  0  0  0  0  0  0  0  0  0  0
    1.7732   -0.7372    0.0000 H   0  0  0  0  0  0  0  0  0  0  0  0
    2.5137   -0.7372    0.0000 H   0  0  0  0  0  0  0  0  0  0  0  0
    3.5724   -0.0000    0.0000 H   0  0  0  0  0  0  0  0  0  0  0  0
    2.8579    1.2375    0.0000 H   0  0  0  0  0  0  0  0  0  0  0  0
  1  2  1  0  0  0  0
  2  3  1  0  0  0  0
  3  4  1  0  0  0  0
  4  5  1  0  0  0  0
  5  6  1  0  0  0  0
  1  7  1  0  0  0  0
  1  8  1  0  0  0  0
  2  9  1  0  0  0  0
  2 10  1  0  0  0  0
  3 11  1  0  0  0  0
  3 12  1  0  0  0  0
  4 13  1  0  0  0  0
  4 14  1  0  0  0  0
  5 15  1  0  0  0  0
  5 16  1  0  0  0  0
  6 17  1  0  0  0  0
  6 18  1  0  0  0  0
M  END
> <id>
206410; 908938; 908939; 908940

> <casrn>
110-60-1

> <smiles (First)>
NCCCCN

> <Molecular weight>
88.15148162841797

> <name>
Putrescine

> <Outcome>
1

> <Molecule (RDKit Mol) (InChI Code)>
InChI=1S/C4H12N2/c5-3-1-2-4-6/h1-6H2

> <reference>
ToxValDB

> <molecule_form>
not specified

$$$$

  Mrv1812 01171911372D          

 36 35  0  0  0  0            999 V2000
   -0.0001    0.0000    0.0000 C   0  0  0  0  0  0  0  0  0  0  0  0
    0.7143    0.4125    0.0000 C   0  0  0  0  0  0  0  0  0  0  0  0
    1.4288    0.0000    0.0000 C   0  0  0  0  0  0  0  0  0  0  0  0
    2.1433    0.4125    0.0000 C   0  0  0  0  0  0  0  0  0  0  0  0
    2.8577    0.0000    0.0000 C   0  0  0  0  0  0  0  0  0  0  0  0
    3.5722    0.4125    0.0000 C   0  0  0  0  0  0  0  0  0  0  0  0
    4.2867    0.0000    0.0000 C   0  0  0  0  0  0  0  0  0  0  0  0
    5.0012    0.4125    0.0000 C   0  0  0  0  0  0  0  0  0  0  0  0
    5.7156    0.0000    0.0000 C   0  0  0  0  0  0  0  0  0  0  0  0
    6.4301    0.4125    0.0000 C   0  0  0  0  0  0  0  0  0  0  0  0
    7.1446    0.0000    0.0000 C   0  0  0  0  0  0  0  0  0  0  0  0
    7.8590    0.4125    0.0000 O   0  0  0  0  0  0  0  0  0  0  0  0
   -0.4126    0.7145    0.0000 H   0  0  0  0  0  0  0  0  0  0  0  0
   -0.7146   -0.4125    0.0000 H   0  0  0  0  0  0  0  0  0  0  0  0
    0.4124   -0.7145    0.0000 H   0  0  0  0  0  0  0  0  0  0  0  0
    1.0846    1.1497    0.0000 H   0  0  0  0  0  0  0  0  0  0  0  0
    0.3441    1.1497    0.0000 H   0  0  0  0  0  0  0  0  0  0  0  0
    1.0585   -0.7372    0.0000 H   0  0  0  0  0  0  0  0  0  0  0  0
    1.7991   -0.7372    0.0000 H   0  0  0  0  0  0  0  0  0  0  0  0
    2.5135    1.1497    0.0000 H   0  0  0  0  0  0  0  0  0  0  0  0
    1.7730    1.1497    0.0000 H   0  0  0  0  0  0  0  0  0  0  0  0
    2.4875   -0.7372    0.0000 H   0  0  0  0  0  0  0  0  0  0  0  0
    3.2280   -0.7372    0.0000 H   0  0  0  0  0  0  0  0  0  0  0  0
    3.9425    1.1497    0.0000 H   0  0  0  0  0  0  0  0  0  0  0  0
    3.2020    1.1497    0.0000 H   0  0  0  0  0  0  0  0  0  0  0  0
    3.9164   -0.7372    0.0000 H   0  0  0  0  0  0  0  0  0  0  0  0
    4.6569   -0.7372    0.0000 H   0  0  0  0  0  0  0  0  0  0  0  0
    5.3714    1.1497    0.0000 H   0  0  0  0  0  0  0  0  0  0  0  0
    4.6309    1.1497    0.0000 H   0  0  0  0  0  0  0  0  0  0  0  0
    5.3454   -0.7372    0.0000 H   0  0  0  0  0  0  0  0  0  0  0  0
    6.0859   -0.7372    0.0000 H   0  0  0  0  0  0  0  0  0  0  0  0
    6.8004    1.1497    0.0000 H   0  0  0  0  0  0  0  0  0  0  0  0
    6.0598    1.1497    0.0000 H   0  0  0  0  0  0  0  0  0  0  0  0
    6.7743   -0.7372    0.0000 H   0  0  0  0  0  0  0  0  0  0  0  0
    7.5148   -0.7372    0.0000 H   0  0  0  0  0  0  0  0  0  0  0  0
    8.5735    0.0000    0.0000 H   0  0  0  0  0  0  0  0  0  0  0  0
  1  2  1  0  0  0  0
  2  3  1  0  0  0  0
  3  4  1  0  0  0  0
  4  5  1  0  0  0  0
  5  6  1  0  0  0  0
  6  7  1  0  0  0  0
  7  8  1  0  0  0  0
  8  9  1  0  0  0  0
  9 10  1  0  0  0  0
 10 11  1  0  0  0  0
 11 12  1  0  0  0  0
  1 13  1  0  0  0  0
  1 14  1  0  0  0  0
  1 15  1  0  0  0  0
  2 16  1  0  0  0  0
  2 17  1  0  0  0  0
  3 18  1  0  0  0  0
  3 19  1  0  0  0  0
  4 20  1  0  0  0  0
  4 21  1  0  0  0  0
  5 22  1  0  0  0  0
  5 23  1  0  0  0  0
  6 24  1  0  0  0  0
  6 25  1  0  0  0  0
  7 26  1  0  0  0  0
  7 27  1  0  0  0  0
  8 28  1  0  0  0  0
  8 29  1  0  0  0  0
  9 30  1  0  0  0  0
  9 31  1  0  0  0  0
 10 32  1  0  0  0  0
 10 33  1  0  0  0  0
 11 34  1  0  0  0  0
 11 35  1  0  0  0  0
 12 36  1  0  0  0  0
M  END
> <id>
210776

> <casrn>
112-42-5

> <smiles (First)>
CCCCCCCCCCCO

> <Molecular weight>
172.3076629638672

> <name>
1-Undecanol

> <Outcome>
0

> <Molecule (RDKit Mol) (InChI Code)>
InChI=1S/C11H24O/c1-2-3-4-5-6-7-8-9-10-11-12/h12H,2-11H2,1H3

> <reference>
ToxValDB

> <molecule_form>
not specified

$$$$

  Mrv1812 01171911372D          

 11 10  0  0  0  0            999 V2000
    1.2567   -0.1548    0.0000 C   0  0  0  0  0  0  0  0  0  0  0  0
    0.4317   -0.1548    0.0000 C   0  0  0  0  0  0  0  0  0  0  0  0
    0.0192   -0.8693    0.0000 Cl  0  0  0  0  0  0  0  0  0  0  0  0
    0.0192    0.5597    0.0000 C   0  0  0  0  0  0  0  0  0  0  0  0
   -0.8058    0.5597    0.0000 Cl  0  0  0  0  0  0  0  0  0  0  0  0
    1.2567   -0.9798    0.0000 H   0  0  0  0  0  0  0  0  0  0  0  0
    2.0817   -0.1548    0.0000 H   0  0  0  0  0  0  0  0  0  0  0  0
    1.2567    0.6702    0.0000 H   0  0  0  0  0  0  0  0  0  0  0  0
    0.8442   -0.8693    0.0000 H   0  0  0  0  0  0  0  0  0  0  0  0
    0.7085    1.0130    0.0000 H   0  0  0  0  0  0  0  0  0  0  0  0
    0.0672    1.3833    0.0000 H   0  0  0  0  0  0  0  0  0  0  0  0
  1  2  1  0  0  0  0
  2  3  1  0  0  0  0
  2  4  1  0  0  0  0
  4  5  1  0  0  0  0
  1  6  1  0  0  0  0
  1  7  1  0  0  0  0
  1  8  1  0  0  0  0
  2  9  1  0  0  0  0
  4 10  1  0  0  0  0
  4 11  1  0  0  0  0
M  END
> <id>
326504

> <casrn>
78-87-5

> <smiles (First)>
CC(Cl)CCl

> <Molecular weight>
112.9857406616211

> <name>
1,2-Dichloropropane

> <Outcome>
1

> <Molecule (RDKit Mol) (InChI Code)>
InChI=1S/C3H6Cl2/c1-3(5)2-4/h3H,2H2,1H3

> <reference>
ToxValDB

> <molecule_form>
not specified

$$$$

  Mrv1812 01171911372D          

 23 22  0  0  0  0            999 V2000
    1.9652    0.7944    0.0000 C   0  0  0  0  0  0  0  0  0  0  0  0
    1.5527    0.0800    0.0000 C   0  0  0  0  0  0  0  0  0  0  0  0
    0.7277    0.0800    0.0000 O   0  0  0  0  0  0  0  0  0  0  0  0
    0.3152   -0.6345    0.0000 C   0  0  0  0  0  0  0  0  0  0  0  0
   -0.5098   -0.6345    0.0000 C   0  0  0  0  0  0  0  0  0  0  0  0
   -0.9223    0.0800    0.0000 C   0  0  0  0  0  0  0  0  0  0  0  0
   -1.3348    0.7944    0.0000 N   0  0  0  0  0  0  0  0  0  0  0  0
   -0.9223   -1.3490    0.0000 C   0  0  0  0  0  0  0  0  0  0  0  0
   -1.7473   -1.3490    0.0000 O   0  0  0  0  0  0  0  0  0  0  0  0
   -0.5098   -2.0634    0.0000 O   0  0  0  0  0  0  0  0  0  0  0  0
   -0.9223   -2.7779    0.0000 C   0  0  0  0  0  0  0  0  0  0  0  0
   -0.5098   -3.4924    0.0000 C   0  0  0  0  0  0  0  0  0  0  0  0
    2.6797    0.3819    0.0000 H   0  0  0  0  0  0  0  0  0  0  0  0
    2.3777    1.5089    0.0000 H   0  0  0  0  0  0  0  0  0  0  0  0
    1.2507    1.2069    0.0000 H   0  0  0  0  0  0  0  0  0  0  0  0
    1.6007   -0.7436    0.0000 H   0  0  0  0  0  0  0  0  0  0  0  0
    2.2420   -0.3734    0.0000 H   0  0  0  0  0  0  0  0  0  0  0  0
    0.7277   -1.3490    0.0000 H   0  0  0  0  0  0  0  0  0  0  0  0
   -1.6596   -2.4076    0.0000 H   0  0  0  0  0  0  0  0  0  0  0  0
   -1.6596   -3.1482    0.0000 H   0  0  0  0  0  0  0  0  0  0  0  0
   -1.2243   -3.9049    0.0000 H   0  0  0  0  0  0  0  0  0  0  0  0
   -0.0973   -4.2068    0.0000 H   0  0  0  0  0  0  0  0  0  0  0  0
    0.2047   -3.0799    0.0000 H   0  0  0  0  0  0  0  0  0  0  0  0
  1  2  1  0  0  0  0
  2  3  1  0  0  0  0
  4  3  1  4  0  0  0
  4  5  2  0  0  0  0
  5  6  1  0  0  0  0
  6  7  3  0  0  0  0
  5  8  1  0  0  0  0
  8  9  2  0  0  0  0
  8 10  1  0  0  0  0
 10 11  1  0  0  0  0
 11 12  1  0  0  0  0
  1 13  1  0  0  0  0
  1 14  1  0  0  0  0
  1 15  1  0  0  0  0
  2 16  1  0  0  0  0
  2 17  1  0  0  0  0
  4 18  1  0  0  0  0
 11 19  1  0  0  0  0
 11 20  1  0  0  0  0
 12 21  1  0  0  0  0
 12 22  1  0  0  0  0
 12 23  1  0  0  0  0
M  END
> <id>
349341

> <casrn>
94-05-3

> <smiles (First)>
CCO\C=C(C#N)/C(=O)OCC

> <Molecular weight>
169.17784118652344

> <name>
2-Propenoic acid, 2-cyano-3-ethoxy-, ethyl ester

> <Outcome>
0

> <Molecule (RDKit Mol) (InChI Code)>
InChI=1S/C8H11NO3/c1-3-11-6-7(5-9)8(10)12-4-2/h6H,3-4H2,1-2H3

> <reference>
ToxValDB

> <molecule_form>
not specified

$$$$

  Mrv1812 01171911372D          

 36 36  0  0  0  0            999 V2000
    0.6885    2.1255    0.0000 Br  0  0  0  0  0  0  0  0  0  0  0  0
    0.6885    1.3005    0.0000 C   0  0  0  0  0  0  0  0  0  0  0  0
   -0.0260    0.8880    0.0000 C   0  0  0  0  0  0  0  0  0  0  0  0
   -0.7405    1.3005    0.0000 C   0  0  0  0  0  0  0  0  0  0  0  0
   -0.7405    2.1255    0.0000 Br  0  0  0  0  0  0  0  0  0  0  0  0
   -1.4549    0.8880    0.0000 C   0  0  0  0  0  0  0  0  0  0  0  0
   -1.4549    0.0630    0.0000 C   0  0  0  0  0  0  0  0  0  0  0  0
   -2.1694   -0.3495    0.0000 Br  0  0  0  0  0  0  0  0  0  0  0  0
   -0.7405   -0.3495    0.0000 C   0  0  0  0  0  0  0  0  0  0  0  0
   -0.7405   -1.1745    0.0000 C   0  0  0  0  0  0  0  0  0  0  0  0
   -1.4549   -1.5870    0.0000 Br  0  0  0  0  0  0  0  0  0  0  0  0
   -0.0260   -1.5870    0.0000 C   0  0  0  0  0  0  0  0  0  0  0  0
    0.6885   -1.1745    0.0000 C   0  0  0  0  0  0  0  0  0  0  0  0
    1.4030   -1.5870    0.0000 Br  0  0  0  0  0  0  0  0  0  0  0  0
    0.6885   -0.3495    0.0000 C   0  0  0  0  0  0  0  0  0  0  0  0
    1.4030    0.0630    0.0000 C   0  0  0  0  0  0  0  0  0  0  0  0
    2.1174   -0.3495    0.0000 Br  0  0  0  0  0  0  0  0  0  0  0  0
    1.4030    0.8880    0.0000 C   0  0  0  0  0  0  0  0  0  0  0  0
   -0.0260    1.7130    0.0000 H   0  0  0  0  0  0  0  0  0  0  0  0
   -0.3962    0.1508    0.0000 H   0  0  0  0  0  0  0  0  0  0  0  0
    0.3443    0.1508    0.0000 H   0  0  0  0  0  0  0  0  0  0  0  0
   -0.7405    0.4755    0.0000 H   0  0  0  0  0  0  0  0  0  0  0  0
   -1.9083    1.5773    0.0000 H   0  0  0  0  0  0  0  0  0  0  0  0
   -2.2785    0.9360    0.0000 H   0  0  0  0  0  0  0  0  0  0  0  0
   -2.1694    0.4755    0.0000 H   0  0  0  0  0  0  0  0  0  0  0  0
    0.0474   -0.5944    0.0000 H   0  0  0  0  0  0  0  0  0  0  0  0
   -1.4549   -0.7620    0.0000 H   0  0  0  0  0  0  0  0  0  0  0  0
   -0.0260   -0.7620    0.0000 H   0  0  0  0  0  0  0  0  0  0  0  0
   -0.3962   -2.3242    0.0000 H   0  0  0  0  0  0  0  0  0  0  0  0
    0.3443   -2.3242    0.0000 H   0  0  0  0  0  0  0  0  0  0  0  0
    0.6885   -1.9995    0.0000 H   0  0  0  0  0  0  0  0  0  0  0  0
    1.4030   -0.7620    0.0000 H   0  0  0  0  0  0  0  0  0  0  0  0
    0.8703    0.4552    0.0000 H   0  0  0  0  0  0  0  0  0  0  0  0
    2.1174    0.4755    0.0000 H   0  0  0  0  0  0  0  0  0  0  0  0
    2.0349    1.4183    0.0000 H   0  0  0  0  0  0  0  0  0  0  0  0
    1.5462    1.7005    0.0000 H   0  0  0  0  0  0  0  0  0  0  0  0
  1  2  1  0  0  0  0
  3  2  1  0  0  0  0
  4  3  1  0  0  0  0
  4  5  1  0  0  0  0
  6  4  1  0  0  0  0
  7  6  1  0  0  0  0
  7  8  1  0  0  0  0
  9  7  1  0  0  0  0
 10  9  1  0  0  0  0
 10 11  1  0  0  0  0
 12 10  1  0  0  0  0
 13 12  1  0  0  0  0
 13 14  1  0  0  0  0
 15 13  1  0  0  0  0
 16 15  1  0  0  0  0
 16 17  1  0  0  0  0
 18 16  1  0  0  0  0
  2 18  1  0  0  0  0
  2 19  1  0  0  0  0
  3 20  1  0  0  0  0
  3 21  1  0  0  0  0
  4 22  1  0  0  0  0
  6 23  1  0  0  0  0
  6 24  1  0  0  0  0
  7 25  1  0  0  0  0
  9 26  1  0  0  0  0
  9 27  1  0  0  0  0
 10 28  1  0  0  0  0
 12 29  1  0  0  0  0
 12 30  1  0  0  0  0
 13 31  1  0  0  0  0
 15 32  1  0  0  0  0
 15 33  1  0  0  0  0
 16 34  1  0  0  0  0
 18 35  1  0  0  0  0
 18 36  1  0  0  0  0
M  END
> <id>
798287

> <casrn>
25637-99-4

> <smiles (First)>
BrC1CC(Br)CC(Br)CC(Br)CC(Br)CC(Br)C1

> <Molecular weight>
641.6953125

> <name>
Hexabromocyclododecane

> <Outcome>
0

> <Molecule (RDKit Mol) (InChI Code)>
InChI=1S/C12H18Br6/c13-7-1-8(14)3-10(16)5-12(18)6-11(17)4-9(15)2-7/h7-12H,1-6H2

> <reference>
ToxValDB

> <molecule_form>
not specified

$$$$

  Mrv1812 01171911372D          

  7  6  0  0  0  0            999 V2000
    0.9818   -0.2631    0.0000 C   0  0  0  0  0  0  0  0  0  0  0  0
    0.5693    0.4514    0.0000 N   0  0  0  0  0  0  0  0  0  0  0  0
   -0.2557    0.4514    0.0000 C   0  0  0  0  0  0  0  0  0  0  0  0
   -1.0807    0.4514    0.0000 S   0  0  0  0  0  0  0  0  0  0  0  0
    0.2673   -0.6756    0.0000 H   0  0  0  0  0  0  0  0  0  0  0  0
    1.3943   -0.9776    0.0000 H   0  0  0  0  0  0  0  0  0  0  0  0
    1.6963    0.1494    0.0000 H   0  0  0  0  0  0  0  0  0  0  0  0
  1  2  1  0  0  0  0
  2  3  2  0  0  0  0
  3  4  2  0  0  0  0
  1  5  1  0  0  0  0
  1  6  1  0  0  0  0
  1  7  1  0  0  0  0
M  END
> <id>
269526; 917365

> <casrn>
556-61-6

> <smiles (First)>
CN=C=S

> <Molecular weight>
73.1169204711914

> <name>
Methyl isothiocyanate

> <Outcome>
1

> <Molecule (RDKit Mol) (InChI Code)>
InChI=1S/C2H3NS/c1-3-2-4/h1H3

> <reference>
ToxValDB

> <molecule_form>
not specified

$$$$

  Mrv1812 01171911372D          

 16 16  0  0  0  0            999 V2000
    1.6486    0.3307    0.0000 C   0  0  0  0  0  0  0  0  0  0  0  0
    0.8640    0.0758    0.0000 C   0  0  0  0  0  0  0  0  0  0  0  0
    0.1966    0.5607    0.0000 C   0  0  0  0  0  0  0  0  0  0  0  0
   -0.4709    0.0758    0.0000 C   0  0  0  0  0  0  0  0  0  0  0  0
   -0.2159   -0.7088    0.0000 O   0  0  0  0  0  0  0  0  0  0  0  0
    0.6091   -0.7088    0.0000 C   0  0  0  0  0  0  0  0  0  0  0  0
    1.9036   -0.4539    0.0000 H   0  0  0  0  0  0  0  0  0  0  0  0
    2.4332    0.5857    0.0000 H   0  0  0  0  0  0  0  0  0  0  0  0
    1.3937    1.1153    0.0000 H   0  0  0  0  0  0  0  0  0  0  0  0
    0.9931    0.8906    0.0000 H   0  0  0  0  0  0  0  0  0  0  0  0
    0.0853    1.3782    0.0000 H   0  0  0  0  0  0  0  0  0  0  0  0
   -0.4423    1.0827    0.0000 H   0  0  0  0  0  0  0  0  0  0  0  0
   -1.0440    0.6692    0.0000 H   0  0  0  0  0  0  0  0  0  0  0  0
   -1.2834   -0.0675    0.0000 H   0  0  0  0  0  0  0  0  0  0  0  0
    0.7239   -1.5258    0.0000 H   0  0  0  0  0  0  0  0  0  0  0  0
    1.3506   -1.0705    0.0000 H   0  0  0  0  0  0  0  0  0  0  0  0
  1  2  1  0  0  0  0
  3  2  1  0  0  0  0
  4  3  1  0  0  0  0
  5  4  1  0  0  0  0
  6  5  1  0  0  0  0
  2  6  1  0  0  0  0
  1  7  1  0  0  0  0
  1  8  1  0  0  0  0
  1  9  1  0  0  0  0
  2 10  1  0  0  0  0
  3 11  1  0  0  0  0
  3 12  1  0  0  0  0
  4 13  1  0  0  0  0
  4 14  1  0  0  0  0
  6 15  1  0  0  0  0
  6 16  1  0  0  0  0
M  END
> <id>
231090

> <casrn>
13423-15-9

> <smiles (First)>
CC1CCOC1

> <Molecular weight>
86.1323013305664

> <name>
Furan, tetrahydro-3-methyl-

> <Outcome>
0

> <Molecule (RDKit Mol) (InChI Code)>
InChI=1S/C5H10O/c1-5-2-3-6-4-5/h5H,2-4H2,1H3

> <reference>
ToxValDB

> <molecule_form>
not specified

$$$$

  Mrv1812 01171911372D          

 12 11  0  0  0  0            999 V2000
    1.1688   -0.6960    0.0000 N   0  0  0  0  0  0  0  0  0  0  0  0
    0.7563    0.0184    0.0000 N   0  0  0  0  0  0  0  0  0  0  0  0
   -0.0687    0.0184    0.0000 C   0  0  0  0  0  0  0  0  0  0  0  0
   -0.4812   -0.6960    0.0000 S   0  0  0  0  0  0  0  0  0  0  0  0
   -0.4812    0.7329    0.0000 N   0  0  0  0  0  0  0  0  0  0  0  0
   -1.3062    0.7329    0.0000 N   0  0  0  0  0  0  0  0  0  0  0  0
    0.7563   -1.4105    0.0000 H   0  0  0  0  0  0  0  0  0  0  0  0
    1.9938   -0.6960    0.0000 H   0  0  0  0  0  0  0  0  0  0  0  0
    1.1688    0.7329    0.0000 H   0  0  0  0  0  0  0  0  0  0  0  0
   -0.0687    1.4474    0.0000 H   0  0  0  0  0  0  0  0  0  0  0  0
   -1.7187    1.4474    0.0000 H   0  0  0  0  0  0  0  0  0  0  0  0
   -1.7187    0.0184    0.0000 H   0  0  0  0  0  0  0  0  0  0  0  0
  1  2  1  0  0  0  0
  2  3  1  0  0  0  0
  3  4  2  0  0  0  0
  3  5  1  0  0  0  0
  5  6  1  0  0  0  0
  1  7  1  0  0  0  0
  1  8  1  0  0  0  0
  2  9  1  0  0  0  0
  5 10  1  0  0  0  0
  6 11  1  0  0  0  0
  6 12  1  0  0  0  0
M  END
> <id>
802256

> <casrn>
2231-57-4

> <smiles (First)>
NNC(=S)NN

> <Molecular weight>
106.15013885498047

> <name>
Thiocarbazide

> <Outcome>
1

> <Molecule (RDKit Mol) (InChI Code)>
InChI=1S/CH6N4S/c2-4-1(6)5-3/h2-3H2,(H2,4,5,6)

> <reference>
ToxValDB

> <molecule_form>
not specified

$$$$

  Mrv1812 01171911372D          

 39 38  0  0  0  0            999 V2000
   -0.0182    0.4247    0.0000 C   0  0  0  0  0  0  0  0  0  0  0  0
    0.6962    0.0122    0.0000 C   0  0  0  0  0  0  0  0  0  0  0  0
    1.4107    0.4247    0.0000 C   0  0  0  0  0  0  0  0  0  0  0  0
    2.1252    0.0122    0.0000 C   0  0  0  0  0  0  0  0  0  0  0  0
    2.8397    0.4247    0.0000 C   0  0  0  0  0  0  0  0  0  0  0  0
    3.5541    0.0122    0.0000 C   0  0  0  0  0  0  0  0  0  0  0  0
    4.2686    0.4247    0.0000 C   0  0  0  0  0  0  0  0  0  0  0  0
    4.9831    0.0122    0.0000 C   0  0  0  0  0  0  0  0  0  0  0  0
    5.6975    0.4247    0.0000 C   0  0  0  0  0  0  0  0  0  0  0  0
    6.4120    0.0122    0.0000 C   0  0  0  0  0  0  0  0  0  0  0  0
    7.1265    0.4247    0.0000 C   0  0  0  0  0  0  0  0  0  0  0  0
    7.8409    0.0122    0.0000 C   0  0  0  0  0  0  0  0  0  0  0  0
    8.5554    0.4247    0.0000 O   0  0  0  0  0  0  0  0  0  0  0  0
    0.3943    1.1391    0.0000 H   0  0  0  0  0  0  0  0  0  0  0  0
   -0.7327    0.8372    0.0000 H   0  0  0  0  0  0  0  0  0  0  0  0
   -0.4307   -0.2898    0.0000 H   0  0  0  0  0  0  0  0  0  0  0  0
    0.3260   -0.7251    0.0000 H   0  0  0  0  0  0  0  0  0  0  0  0
    1.0665   -0.7251    0.0000 H   0  0  0  0  0  0  0  0  0  0  0  0
    1.7810    1.1619    0.0000 H   0  0  0  0  0  0  0  0  0  0  0  0
    1.0405    1.1619    0.0000 H   0  0  0  0  0  0  0  0  0  0  0  0
    1.7549   -0.7251    0.0000 H   0  0  0  0  0  0  0  0  0  0  0  0
    2.4954   -0.7251    0.0000 H   0  0  0  0  0  0  0  0  0  0  0  0
    3.2099    1.1619    0.0000 H   0  0  0  0  0  0  0  0  0  0  0  0
    2.4694    1.1619    0.0000 H   0  0  0  0  0  0  0  0  0  0  0  0
    3.1839   -0.7251    0.0000 H   0  0  0  0  0  0  0  0  0  0  0  0
    3.9244   -0.7251    0.0000 H   0  0  0  0  0  0  0  0  0  0  0  0
    4.6389    1.1619    0.0000 H   0  0  0  0  0  0  0  0  0  0  0  0
    3.8983    1.1619    0.0000 H   0  0  0  0  0  0  0  0  0  0  0  0
    4.6128   -0.7251    0.0000 H   0  0  0  0  0  0  0  0  0  0  0  0
    5.3533   -0.7251    0.0000 H   0  0  0  0  0  0  0  0  0  0  0  0
    6.0678    1.1619    0.0000 H   0  0  0  0  0  0  0  0  0  0  0  0
    5.3273    1.1619    0.0000 H   0  0  0  0  0  0  0  0  0  0  0  0
    6.0417   -0.7251    0.0000 H   0  0  0  0  0  0  0  0  0  0  0  0
    6.7823   -0.7251    0.0000 H   0  0  0  0  0  0  0  0  0  0  0  0
    7.4967    1.1619    0.0000 H   0  0  0  0  0  0  0  0  0  0  0  0
    6.7562    1.1619    0.0000 H   0  0  0  0  0  0  0  0  0  0  0  0
    7.4707   -0.7251    0.0000 H   0  0  0  0  0  0  0  0  0  0  0  0
    8.2112   -0.7251    0.0000 H   0  0  0  0  0  0  0  0  0  0  0  0
    9.2699    0.0122    0.0000 H   0  0  0  0  0  0  0  0  0  0  0  0
  1  2  1  0  0  0  0
  2  3  1  0  0  0  0
  3  4  1  0  0  0  0
  4  5  1  0  0  0  0
  5  6  1  0  0  0  0
  6  7  1  0  0  0  0
  7  8  1  0  0  0  0
  8  9  1  0  0  0  0
  9 10  1  0  0  0  0
 10 11  1  0  0  0  0
 11 12  1  0  0  0  0
 12 13  1  0  0  0  0
  1 14  1  0  0  0  0
  1 15  1  0  0  0  0
  1 16  1  0  0  0  0
  2 17  1  0  0  0  0
  2 18  1  0  0  0  0
  3 19  1  0  0  0  0
  3 20  1  0  0  0  0
  4 21  1  0  0  0  0
  4 22  1  0  0  0  0
  5 23  1  0  0  0  0
  5 24  1  0  0  0  0
  6 25  1  0  0  0  0
  6 26  1  0  0  0  0
  7 27  1  0  0  0  0
  7 28  1  0  0  0  0
  8 29  1  0  0  0  0
  8 30  1  0  0  0  0
  9 31  1  0  0  0  0
  9 32  1  0  0  0  0
 10 33  1  0  0  0  0
 10 34  1  0  0  0  0
 11 35  1  0  0  0  0
 11 36  1  0  0  0  0
 12 37  1  0  0  0  0
 12 38  1  0  0  0  0
 13 39  1  0  0  0  0
M  END
> <id>
210897

> <casrn>
112-53-8

> <smiles (First)>
CCCCCCCCCCCCO

> <Molecular weight>
186.33424377441406

> <name>
1-Dodecanol

> <Outcome>
0

> <Molecule (RDKit Mol) (InChI Code)>
InChI=1S/C12H26O/c1-2-3-4-5-6-7-8-9-10-11-12-13/h13H,2-12H2,1H3

> <reference>
ToxValDB

> <molecule_form>
not specified

$$$$

  Mrv1812 01171911372D          

 22 22  0  0  0  0            999 V2000
    1.7200   -1.9885    0.0000 C   0  0  0  0  0  0  0  0  0  0  0  0
    1.7200   -1.1635    0.0000 N   0  3  0  0  0  0  0  0  0  0  0  0
    2.5450   -1.1635    0.0000 C   0  0  0  0  0  0  0  0  0  0  0  0
    0.8950   -1.1635    0.0000 C   0  0  0  0  0  0  0  0  0  0  0  0
    1.7200   -0.3385    0.0000 C   0  0  0  0  0  0  0  0  0  0  0  0
    1.0055    0.0740    0.0000 C   0  0  0  0  0  0  0  0  0  0  0  0
    0.5930    0.7884    0.0000 C   0  0  0  0  0  0  0  0  0  0  0  0
    0.1805    0.0740    0.0000 O   0  0  0  0  0  0  0  0  0  0  0  0
    0.8950   -1.9885    0.0000 H   0  0  0  0  0  0  0  0  0  0  0  0
    1.7200   -2.8135    0.0000 H   0  0  0  0  0  0  0  0  0  0  0  0
    2.5450   -1.9885    0.0000 H   0  0  0  0  0  0  0  0  0  0  0  0
    3.3072   -1.4792    0.0000 H   0  0  0  0  0  0  0  0  0  0  0  0
    3.1283   -0.5802    0.0000 H   0  0  0  0  0  0  0  0  0  0  0  0
    2.2293   -0.4013    0.0000 H   0  0  0  0  0  0  0  0  0  0  0  0
    1.2107   -0.4013    0.0000 H   0  0  0  0  0  0  0  0  0  0  0  0
    0.3116   -0.5802    0.0000 H   0  0  0  0  0  0  0  0  0  0  0  0
    0.1328   -1.4792    0.0000 H   0  0  0  0  0  0  0  0  0  0  0  0
    2.3001    0.2480    0.0000 H   0  0  0  0  0  0  0  0  0  0  0  0
    1.6101    0.4791    0.0000 H   0  0  0  0  0  0  0  0  0  0  0  0
    1.1923    0.8776    0.0000 H   0  0  0  0  0  0  0  0  0  0  0  0
    0.4710    1.6044    0.0000 H   0  0  0  0  0  0  0  0  0  0  0  0
   -0.1211    1.2015    0.0000 H   0  0  0  0  0  0  0  0  0  0  0  0
  1  2  1  0  0  0  0
  2  3  1  0  0  0  0
  2  4  1  0  0  0  0
  2  5  1  0  0  0  0
  5  6  1  0  0  0  0
  7  6  1  0  0  0  0
  8  7  1  0  0  0  0
  6  8  1  0  0  0  0
  1  9  1  0  0  0  0
  1 10  1  0  0  0  0
  1 11  1  0  0  0  0
  3 12  1  0  0  0  0
  3 13  1  0  0  0  0
  3 14  1  0  0  0  0
  4 15  1  0  0  0  0
  4 16  1  0  0  0  0
  4 17  1  0  0  0  0
  5 18  1  0  0  0  0
  5 19  1  0  0  0  0
  6 20  1  0  0  0  0
  7 21  1  0  0  0  0
  7 22  1  0  0  0  0
M  CHG  1   2   1
M  END
> <id>
256441

> <casrn>
3033-77-0

> <smiles (First)>
[Cl-].C[N+](C)(C)CC1CO1

> <Molecular weight>
116.18145751953125

> <name>
Glycidyl trimethylammonium chloride

> <Outcome>
1

> <Molecule (RDKit Mol) (InChI Code)>
InChI=1S/C6H14NO/c1-7(2,3)4-6-5-8-6/h6H,4-5H2,1-3H3/q+1

> <reference>
ToxValDB

> <molecule_form>
not specified

$$$$

  Mrv1812 01171911372D          

 25 24  0  0  0  0            999 V2000
   -2.2079    2.0998    0.0000 C   0  0  0  0  0  0  0  0  0  0  0  0
   -1.4934    1.6873    0.0000 C   0  0  0  0  0  0  0  0  0  0  0  0
   -1.4934    0.8623    0.0000 C   0  0  0  0  0  0  0  0  0  0  0  0
   -0.7790    2.0998    0.0000 C   0  0  0  0  0  0  0  0  0  0  0  0
   -0.7790    2.9248    0.0000 O   0  0  0  0  0  0  0  0  0  0  0  0
   -0.0645    1.6873    0.0000 O   0  0  0  0  0  0  0  0  0  0  0  0
    0.6500    2.0998    0.0000 C   0  0  0  0  0  0  0  0  0  0  0  0
    0.6500    2.9248    0.0000 O   0  0  0  0  0  0  0  0  0  0  0  0
    1.3644    1.6873    0.0000 C   0  0  0  0  0  0  0  0  0  0  0  0
    2.0789    2.0998    0.0000 C   0  0  0  0  0  0  0  0  0  0  0  0
    1.3644    0.8623    0.0000 C   0  0  0  0  0  0  0  0  0  0  0  0
   -1.7954    2.8142    0.0000 H   0  0  0  0  0  0  0  0  0  0  0  0
   -2.9224    2.5123    0.0000 H   0  0  0  0  0  0  0  0  0  0  0  0
   -2.6204    1.3853    0.0000 H   0  0  0  0  0  0  0  0  0  0  0  0
   -2.2079    1.2748    0.0000 H   0  0  0  0  0  0  0  0  0  0  0  0
   -2.0768    0.2789    0.0000 H   0  0  0  0  0  0  0  0  0  0  0  0
   -1.0809    0.1478    0.0000 H   0  0  0  0  0  0  0  0  0  0  0  0
   -0.6965    1.0758    0.0000 H   0  0  0  0  0  0  0  0  0  0  0  0
    1.3644    2.5123    0.0000 H   0  0  0  0  0  0  0  0  0  0  0  0
    2.2924    1.3029    0.0000 H   0  0  0  0  0  0  0  0  0  0  0  0
    2.9039    2.0998    0.0000 H   0  0  0  0  0  0  0  0  0  0  0  0
    2.2924    2.8967    0.0000 H   0  0  0  0  0  0  0  0  0  0  0  0
    0.5394    0.8623    0.0000 H   0  0  0  0  0  0  0  0  0  0  0  0
    1.3644    0.0373    0.0000 H   0  0  0  0  0  0  0  0  0  0  0  0
    2.1894    0.8623    0.0000 H   0  0  0  0  0  0  0  0  0  0  0  0
  1  2  1  0  0  0  0
  2  3  1  0  0  0  0
  2  4  1  0  0  0  0
  4  5  2  0  0  0  0
  4  6  1  0  0  0  0
  6  7  1  0  0  0  0
  7  8  2  0  0  0  0
  7  9  1  0  0  0  0
  9 10  1  0  0  0  0
  9 11  1  0  0  0  0
  1 12  1  0  0  0  0
  1 13  1  0  0  0  0
  1 14  1  0  0  0  0
  2 15  1  0  0  0  0
  3 16  1  0  0  0  0
  3 17  1  0  0  0  0
  3 18  1  0  0  0  0
  9 19  1  0  0  0  0
 10 20  1  0  0  0  0
 10 21  1  0  0  0  0
 10 22  1  0  0  0  0
 11 23  1  0  0  0  0
 11 24  1  0  0  0  0
 11 25  1  0  0  0  0
M  END
> <id>
352875

> <casrn>
97-72-3

> <smiles (First)>
CC(C)C(=O)OC(=O)C(C)C

> <Molecular weight>
158.19496154785156

> <name>
Isobutyric anhydride

> <Outcome>
1

> <Molecule (RDKit Mol) (InChI Code)>
InChI=1S/C8H14O3/c1-5(2)7(9)11-8(10)6(3)4/h5-6H,1-4H3

> <reference>
ToxValDB

> <molecule_form>
not specified

$$$$

  Mrv1812 01171911372D          

 51 52  0  0  0  0            999 V2000
    1.0188   -1.7645    0.0000 C   0  0  0  0  0  0  0  0  0  0  0  0
    0.6063   -1.0501    0.0000 C   0  0  0  0  0  0  0  0  0  0  0  0
    0.1938   -0.3356    0.0000 C   0  0  0  0  0  0  0  0  0  0  0  0
   -0.1082   -1.4626    0.0000 C   0  0  0  0  0  0  0  0  0  0  0  0
   -0.8227   -1.0501    0.0000 C   0  0  0  0  0  0  0  0  0  0  0  0
   -1.5371   -1.4626    0.0000 C   0  0  0  0  0  0  0  0  0  0  0  0
   -2.2516   -1.0501    0.0000 Br  0  0  0  0  0  0  0  0  0  0  0  0
   -1.5371   -2.2876    0.0000 C   0  0  0  0  0  0  0  0  0  0  0  0
   -2.2516   -2.7001    0.0000 O   0  0  0  0  0  0  0  0  0  0  0  0
   -2.2516   -3.5251    0.0000 C   0  0  0  0  0  0  0  0  0  0  0  0
   -2.9661   -3.9376    0.0000 C   0  0  0  0  0  0  0  0  0  0  0  0
   -3.6806   -3.5251    0.0000 Br  0  0  0  0  0  0  0  0  0  0  0  0
   -2.9661   -4.7626    0.0000 C   0  0  0  0  0  0  0  0  0  0  0  0
   -3.6806   -5.1751    0.0000 Br  0  0  0  0  0  0  0  0  0  0  0  0
   -0.8227   -2.7001    0.0000 C   0  0  0  0  0  0  0  0  0  0  0  0
   -0.8227   -3.5251    0.0000 Br  0  0  0  0  0  0  0  0  0  0  0  0
   -0.1082   -2.2876    0.0000 C   0  0  0  0  0  0  0  0  0  0  0  0
    1.3207   -0.6376    0.0000 C   0  0  0  0  0  0  0  0  0  0  0  0
    2.0352   -1.0501    0.0000 C   0  0  0  0  0  0  0  0  0  0  0  0
    2.7497   -0.6376    0.0000 C   0  0  0  0  0  0  0  0  0  0  0  0
    3.4641   -1.0501    0.0000 Br  0  0  0  0  0  0  0  0  0  0  0  0
    2.7497    0.1874    0.0000 C   0  0  0  0  0  0  0  0  0  0  0  0
    3.4641    0.5999    0.0000 O   0  0  0  0  0  0  0  0  0  0  0  0
    4.1786    0.1874    0.0000 C   0  0  0  0  0  0  0  0  0  0  0  0
    4.8931    0.5999    0.0000 C   0  0  0  0  0  0  0  0  0  0  0  0
    4.8931    1.4249    0.0000 Br  0  0  0  0  0  0  0  0  0  0  0  0
    5.6076    0.1874    0.0000 C   0  0  0  0  0  0  0  0  0  0  0  0
    6.3220    0.5999    0.0000 Br  0  0  0  0  0  0  0  0  0  0  0  0
    2.0352    0.5999    0.0000 C   0  0  0  0  0  0  0  0  0  0  0  0
    2.0352    1.4249    0.0000 Br  0  0  0  0  0  0  0  0  0  0  0  0
    1.3207    0.1874    0.0000 C   0  0  0  0  0  0  0  0  0  0  0  0
    0.3043   -2.1770    0.0000 H   0  0  0  0  0  0  0  0  0  0  0  0
    1.4313   -2.4790    0.0000 H   0  0  0  0  0  0  0  0  0  0  0  0
    1.7332   -1.3520    0.0000 H   0  0  0  0  0  0  0  0  0  0  0  0
    0.9082    0.0769    0.0000 H   0  0  0  0  0  0  0  0  0  0  0  0
   -0.2187    0.3789    0.0000 H   0  0  0  0  0  0  0  0  0  0  0  0
   -0.5207   -0.7481    0.0000 H   0  0  0  0  0  0  0  0  0  0  0  0
   -1.3249   -0.3955    0.0000 H   0  0  0  0  0  0  0  0  0  0  0  0
   -1.7983   -4.2143    0.0000 H   0  0  0  0  0  0  0  0  0  0  0  0
   -1.4280   -3.5730    0.0000 H   0  0  0  0  0  0  0  0  0  0  0  0
   -2.9661   -3.1126    0.0000 H   0  0  0  0  0  0  0  0  0  0  0  0
   -2.5127   -5.4518    0.0000 H   0  0  0  0  0  0  0  0  0  0  0  0
   -2.1425   -4.8105    0.0000 H   0  0  0  0  0  0  0  0  0  0  0  0
    0.2075   -3.0498    0.0000 H   0  0  0  0  0  0  0  0  0  0  0  0
    2.5374   -1.7046    0.0000 H   0  0  0  0  0  0  0  0  0  0  0  0
    3.8084   -0.5498    0.0000 H   0  0  0  0  0  0  0  0  0  0  0  0
    4.5489   -0.5498    0.0000 H   0  0  0  0  0  0  0  0  0  0  0  0
    4.1786    1.0124    0.0000 H   0  0  0  0  0  0  0  0  0  0  0  0
    5.2373   -0.5498    0.0000 H   0  0  0  0  0  0  0  0  0  0  0  0
    5.9778   -0.5498    0.0000 H   0  0  0  0  0  0  0  0  0  0  0  0
    1.0050    0.9496    0.0000 H   0  0  0  0  0  0  0  0  0  0  0  0
  1  2  1  0  0  0  0
  2  3  1  0  0  0  0
  2  4  1  0  0  0  0
  5  4  4  0  0  0  0
  6  5  4  0  0  0  0
  6  7  1  0  0  0  0
  8  6  4  0  0  0  0
  8  9  1  0  0  0  0
  9 10  1  0  0  0  0
 10 11  1  0  0  0  0
 11 12  1  0  0  0  0
 11 13  1  0  0  0  0
 13 14  1  0  0  0  0
 15  8  4  0  0  0  0
 15 16  1  0  0  0  0
 17 15  4  0  0  0  0
  2 18  1  0  0  0  0
 19 18  4  0  0  0  0
 20 19  4  0  0  0  0
 20 21  1  0  0  0  0
 22 20  4  0  0  0  0
 22 23  1  0  0  0  0
 23 24  1  0  0  0  0
 24 25  1  0  0  0  0
 25 26  1  0  0  0  0
 25 27  1  0  0  0  0
 27 28  1  0  0  0  0
 29 22  4  0  0  0  0
 29 30  1  0  0  0  0
 31 29  4  0  0  0  0
  4 17  4  0  0  0  0
 18 31  4  0  0  0  0
  1 32  1  0  0  0  0
  1 33  1  0  0  0  0
  1 34  1  0  0  0  0
  3 35  1  0  0  0  0
  3 36  1  0  0  0  0
  3 37  1  0  0  0  0
  5 38  1  0  0  0  0
 10 39  1  0  0  0  0
 10 40  1  0  0  0  0
 11 41  1  0  0  0  0
 13 42  1  0  0  0  0
 13 43  1  0  0  0  0
 17 44  1  0  0  0  0
 19 45  1  0  0  0  0
 24 46  1  0  0  0  0
 24 47  1  0  0  0  0
 25 48  1  0  0  0  0
 27 49  1  0  0  0  0
 27 50  1  0  0  0  0
 31 51  1  0  0  0  0
M  END
> <id>
247183

> <casrn>
21850-44-2

> <smiles (First)>
CC(C)(c1cc(Br)c(OCC(Br)CBr)c(Br)c1)c2cc(Br)c(OCC(Br)CBr)c(Br)c2

> <Molecular weight>
943.6143188476562

> <name>
Tetrabromobisphenol A-bis(2,3-dibromopropyl ether)

> <Outcome>
0

> <Molecule (RDKit Mol) (InChI Code)>
InChI=1S/C21H20Br8O2/c1-21(2,11-3-15(26)19(16(27)4-11)30-9-13(24)7-22)12-5-17(28)20(18(29)6-12)31-10-14(25)8-23/h3-6,13-14H,7-10H2,1-2H3

> <reference>
ToxValDB

> <molecule_form>
not specified

$$$$

  Mrv1812 01171911372D          

  7  6  0  0  0  0            999 V2000
    0.4830    0.4830    0.0000 C   0  0  0  0  0  0  0  0  0  0  0  0
    0.0705   -0.2315    0.0000 N   0  0  0  0  0  0  0  0  0  0  0  0
    0.4830   -0.9460    0.0000 O   0  0  0  0  0  0  0  0  0  0  0  0
   -0.7545   -0.2315    0.0000 O   0  0  0  0  0  0  0  0  0  0  0  0
    1.1975    0.0705    0.0000 H   0  0  0  0  0  0  0  0  0  0  0  0
    0.8955    1.1975    0.0000 H   0  0  0  0  0  0  0  0  0  0  0  0
   -0.2315    0.8955    0.0000 H   0  0  0  0  0  0  0  0  0  0  0  0
  1  2  1  0  0  0  0
  2  3  2  0  0  0  0
  2  4  2  0  0  0  0
  1  5  1  0  0  0  0
  1  6  1  0  0  0  0
  1  7  1  0  0  0  0
M  END
> <id>
315304

> <casrn>
75-52-5

> <smiles (First)>
C[N+]([O-])=O

> <Molecular weight>
61.04001998901367

> <name>
Nitromethane

> <Outcome>
1

> <Molecule (RDKit Mol) (InChI Code)>
InChI=1S/CH3NO2/c1-2(3)4/h1H3

> <reference>
ToxValDB

> <molecule_form>
not specified

$$$$

  Mrv1812 01171911372D          

 11 10  0  0  0  0            999 V2000
    1.7717   -0.9718    0.0000 Cl  0  0  0  0  0  0  0  0  0  0  0  0
    1.3592   -0.2573    0.0000 C   0  0  0  0  0  0  0  0  0  0  0  0
    0.5342   -0.2573    0.0000 C   0  0  0  0  0  0  0  0  0  0  0  0
    0.1217    0.4572    0.0000 C   0  0  0  0  0  0  0  0  0  0  0  0
   -0.7033    0.4572    0.0000 Br  0  0  0  0  0  0  0  0  0  0  0  0
    2.0485    0.1961    0.0000 H   0  0  0  0  0  0  0  0  0  0  0  0
    1.4072    0.5663    0.0000 H   0  0  0  0  0  0  0  0  0  0  0  0
   -0.1551   -0.7106    0.0000 H   0  0  0  0  0  0  0  0  0  0  0  0
    0.4862   -1.0809    0.0000 H   0  0  0  0  0  0  0  0  0  0  0  0
    0.8110    0.9105    0.0000 H   0  0  0  0  0  0  0  0  0  0  0  0
    0.1697    1.2808    0.0000 H   0  0  0  0  0  0  0  0  0  0  0  0
  1  2  1  0  0  0  0
  2  3  1  0  0  0  0
  3  4  1  0  0  0  0
  4  5  1  0  0  0  0
  2  6  1  0  0  0  0
  2  7  1  0  0  0  0
  3  8  1  0  0  0  0
  3  9  1  0  0  0  0
  4 10  1  0  0  0  0
  4 11  1  0  0  0  0
M  END
> <id>
205508

> <casrn>
109-70-6

> <smiles (First)>
ClCCCBr

> <Molecular weight>
157.43673706054688

> <name>
1-Bromo-3-chloropropane

> <Outcome>
1

> <Molecule (RDKit Mol) (InChI Code)>
InChI=1S/C3H6BrCl/c4-2-1-3-5/h1-3H2

> <reference>
ToxValDB

> <molecule_form>
not specified

$$$$

  Mrv1812 01171911372D          

 11 10  0  0  0  0            999 V2000
    1.0875    0.1949    0.0000 C   0  0  0  0  0  0  0  0  0  0  0  0
    0.6750   -0.5196    0.0000 C   0  0  0  0  0  0  0  0  0  0  0  0
   -0.1500   -0.5196    0.0000 C   0  0  0  0  0  0  0  0  0  0  0  0
   -0.5625   -1.2341    0.0000 C   0  0  0  0  0  0  0  0  0  0  0  0
   -0.1500   -1.9485    0.0000 O   0  0  0  0  0  0  0  0  0  0  0  0
    1.8020   -0.2176    0.0000 H   0  0  0  0  0  0  0  0  0  0  0  0
    1.5000    0.9093    0.0000 H   0  0  0  0  0  0  0  0  0  0  0  0
    0.3730    0.6074    0.0000 H   0  0  0  0  0  0  0  0  0  0  0  0
    1.0875   -1.2341    0.0000 H   0  0  0  0  0  0  0  0  0  0  0  0
   -0.5625    0.1949    0.0000 H   0  0  0  0  0  0  0  0  0  0  0  0
   -1.3875   -1.2341    0.0000 H   0  0  0  0  0  0  0  0  0  0  0  0
  2  1  1  4  0  0  0
  2  3  2  0  0  0  0
  3  4  1  0  0  0  0
  4  5  2  0  0  0  0
  1  6  1  0  0  0  0
  1  7  1  0  0  0  0
  1  8  1  0  0  0  0
  2  9  1  0  0  0  0
  3 10  1  0  0  0  0
  4 11  1  0  0  0  0
M  END
> <id>
262651; 262674

> <casrn>
4170-30-3

> <smiles (First)>
C\C=C/C=O

> <Molecular weight>
70.08984375

> <name>
Crotonaldehyde

> <Outcome>
1

> <Molecule (RDKit Mol) (InChI Code)>
InChI=1S/C4H6O/c1-2-3-4-5/h2-4H,1H3

> <reference>
ToxValDB

> <molecule_form>
not specified

$$$$

  Mrv1812 01171911372D          

 29 29  0  0  0  0            999 V2000
    1.7042    1.6722    0.0000 C   0  0  0  0  0  0  0  0  0  0  0  0
    0.9897    2.0847    0.0000 O   0  0  0  0  0  0  0  0  0  0  0  0
    0.2753    1.6722    0.0000 C   0  0  0  0  0  0  0  0  0  0  0  0
   -0.4392    2.0847    0.0000 C   0  0  0  0  0  0  0  0  0  0  0  0
   -1.1537    1.6722    0.0000 C   0  0  0  0  0  0  0  0  0  0  0  0
   -1.1537    0.8472    0.0000 C   0  0  0  0  0  0  0  0  0  0  0  0
   -1.8682    0.4347    0.0000 O   0  0  0  0  0  0  0  0  0  0  0  0
   -0.4392    0.4347    0.0000 C   0  0  0  0  0  0  0  0  0  0  0  0
    0.2753    0.8472    0.0000 C   0  0  0  0  0  0  0  0  0  0  0  0
   -0.4392   -0.3903    0.0000 C   0  0  0  0  0  0  0  0  0  0  0  0
   -0.4392   -1.2153    0.0000 C   0  0  0  0  0  0  0  0  0  0  0  0
    0.3858   -0.3903    0.0000 C   0  0  0  0  0  0  0  0  0  0  0  0
   -1.2642   -0.3903    0.0000 C   0  0  0  0  0  0  0  0  0  0  0  0
    1.2917    0.9577    0.0000 H   0  0  0  0  0  0  0  0  0  0  0  0
    2.4187    1.2597    0.0000 H   0  0  0  0  0  0  0  0  0  0  0  0
    2.1167    2.3866    0.0000 H   0  0  0  0  0  0  0  0  0  0  0  0
   -0.4392    2.9097    0.0000 H   0  0  0  0  0  0  0  0  0  0  0  0
   -1.8682    2.0847    0.0000 H   0  0  0  0  0  0  0  0  0  0  0  0
   -2.5826    0.8472    0.0000 H   0  0  0  0  0  0  0  0  0  0  0  0
    0.9897    0.4347    0.0000 H   0  0  0  0  0  0  0  0  0  0  0  0
   -1.2642   -1.2153    0.0000 H   0  0  0  0  0  0  0  0  0  0  0  0
   -0.4392   -2.0403    0.0000 H   0  0  0  0  0  0  0  0  0  0  0  0
    0.3858   -1.2153    0.0000 H   0  0  0  0  0  0  0  0  0  0  0  0
    1.1480   -0.7061    0.0000 H   0  0  0  0  0  0  0  0  0  0  0  0
    0.9691    0.1930    0.0000 H   0  0  0  0  0  0  0  0  0  0  0  0
    0.0701    0.3719    0.0000 H   0  0  0  0  0  0  0  0  0  0  0  0
   -0.9485    0.3719    0.0000 H   0  0  0  0  0  0  0  0  0  0  0  0
   -1.8476    0.1930    0.0000 H   0  0  0  0  0  0  0  0  0  0  0  0
   -2.0264   -0.7061    0.0000 H   0  0  0  0  0  0  0  0  0  0  0  0
  1  2  1  0  0  0  0
  2  3  1  0  0  0  0
  4  3  4  0  0  0  0
  5  4  4  0  0  0  0
  6  5  4  0  0  0  0
  6  7  1  0  0  0  0
  8  6  4  0  0  0  0
  9  8  4  0  0  0  0
  8 10  1  0  0  0  0
 10 11  1  0  0  0  0
 10 12  1  0  0  0  0
 10 13  1  0  0  0  0
  3  9  4  0  0  0  0
  1 14  1  0  0  0  0
  1 15  1  0  0  0  0
  1 16  1  0  0  0  0
  4 17  1  0  0  0  0
  5 18  1  0  0  0  0
  7 19  1  0  0  0  0
  9 20  1  0  0  0  0
 11 21  1  0  0  0  0
 11 22  1  0  0  0  0
 11 23  1  0  0  0  0
 12 24  1  0  0  0  0
 12 25  1  0  0  0  0
 12 26  1  0  0  0  0
 13 27  1  0  0  0  0
 13 28  1  0  0  0  0
 13 29  1  0  0  0  0
M  END
> <id>
249681

> <casrn>
25013-16-5

> <smiles (First)>
COc1ccc(O)c(c1)C(C)(C)C

> <Molecular weight>
180.24354553222656

> <name>
Butylated hydroxyanisole

> <Outcome>
0

> <Molecule (RDKit Mol) (InChI Code)>
InChI=1S/C11H16O2/c1-11(2,3)9-7-8(13-4)5-6-10(9)12/h5-7,12H,1-4H3

> <reference>
ToxValDB

> <molecule_form>
not specified

$$$$

  Mrv1812 01171911372D          

 33 32  0  0  0  0            999 V2000
   -0.0216    0.4268    0.0000 C   0  0  0  0  0  0  0  0  0  0  0  0
    0.6929    0.0143    0.0000 C   0  0  0  0  0  0  0  0  0  0  0  0
    1.4074    0.4268    0.0000 C   0  0  0  0  0  0  0  0  0  0  0  0
    2.1218    0.0143    0.0000 C   0  0  0  0  0  0  0  0  0  0  0  0
    2.8363    0.4268    0.0000 C   0  0  0  0  0  0  0  0  0  0  0  0
    3.5508    0.0143    0.0000 C   0  0  0  0  0  0  0  0  0  0  0  0
    4.2652    0.4268    0.0000 C   0  0  0  0  0  0  0  0  0  0  0  0
    4.9797    0.0143    0.0000 C   0  0  0  0  0  0  0  0  0  0  0  0
    5.6942    0.4268    0.0000 C   0  0  0  0  0  0  0  0  0  0  0  0
    6.4087    0.0143    0.0000 C   0  0  0  0  0  0  0  0  0  0  0  0
    7.1231    0.4268    0.0000 O   0  0  0  0  0  0  0  0  0  0  0  0
    0.3909    1.1413    0.0000 H   0  0  0  0  0  0  0  0  0  0  0  0
   -0.7361    0.8393    0.0000 H   0  0  0  0  0  0  0  0  0  0  0  0
   -0.4341   -0.2876    0.0000 H   0  0  0  0  0  0  0  0  0  0  0  0
    0.3226   -0.7229    0.0000 H   0  0  0  0  0  0  0  0  0  0  0  0
    1.0631   -0.7229    0.0000 H   0  0  0  0  0  0  0  0  0  0  0  0
    1.7776    1.1641    0.0000 H   0  0  0  0  0  0  0  0  0  0  0  0
    1.0371    1.1641    0.0000 H   0  0  0  0  0  0  0  0  0  0  0  0
    1.7516   -0.7229    0.0000 H   0  0  0  0  0  0  0  0  0  0  0  0
    2.4921   -0.7229    0.0000 H   0  0  0  0  0  0  0  0  0  0  0  0
    3.2066    1.1641    0.0000 H   0  0  0  0  0  0  0  0  0  0  0  0
    2.4660    1.1641    0.0000 H   0  0  0  0  0  0  0  0  0  0  0  0
    3.1805   -0.7229    0.0000 H   0  0  0  0  0  0  0  0  0  0  0  0
    3.9210   -0.7229    0.0000 H   0  0  0  0  0  0  0  0  0  0  0  0
    4.6355    1.1641    0.0000 H   0  0  0  0  0  0  0  0  0  0  0  0
    3.8950    1.1641    0.0000 H   0  0  0  0  0  0  0  0  0  0  0  0
    4.6095   -0.7229    0.0000 H   0  0  0  0  0  0  0  0  0  0  0  0
    5.3500   -0.7229    0.0000 H   0  0  0  0  0  0  0  0  0  0  0  0
    6.0644    1.1641    0.0000 H   0  0  0  0  0  0  0  0  0  0  0  0
    5.3239    1.1641    0.0000 H   0  0  0  0  0  0  0  0  0  0  0  0
    6.0384   -0.7229    0.0000 H   0  0  0  0  0  0  0  0  0  0  0  0
    6.7789   -0.7229    0.0000 H   0  0  0  0  0  0  0  0  0  0  0  0
    7.8376    0.0143    0.0000 H   0  0  0  0  0  0  0  0  0  0  0  0
  1  2  1  0  0  0  0
  2  3  1  0  0  0  0
  3  4  1  0  0  0  0
  4  5  1  0  0  0  0
  5  6  1  0  0  0  0
  6  7  1  0  0  0  0
  7  8  1  0  0  0  0
  8  9  1  0  0  0  0
  9 10  1  0  0  0  0
 10 11  1  0  0  0  0
  1 12  1  0  0  0  0
  1 13  1  0  0  0  0
  1 14  1  0  0  0  0
  2 15  1  0  0  0  0
  2 16  1  0  0  0  0
  3 17  1  0  0  0  0
  3 18  1  0  0  0  0
  4 19  1  0  0  0  0
  4 20  1  0  0  0  0
  5 21  1  0  0  0  0
  5 22  1  0  0  0  0
  6 23  1  0  0  0  0
  6 24  1  0  0  0  0
  7 25  1  0  0  0  0
  7 26  1  0  0  0  0
  8 27  1  0  0  0  0
  8 28  1  0  0  0  0
  9 29  1  0  0  0  0
  9 30  1  0  0  0  0
 10 31  1  0  0  0  0
 10 32  1  0  0  0  0
 11 33  1  0  0  0  0
M  END
> <id>
210276

> <casrn>
112-30-1

> <smiles (First)>
CCCCCCCCCCO

> <Molecular weight>
158.2810821533203

> <name>
1-Decanol

> <Outcome>
0

> <Molecule (RDKit Mol) (InChI Code)>
InChI=1S/C10H22O/c1-2-3-4-5-6-7-8-9-10-11/h11H,2-10H2,1H3

> <reference>
ToxValDB

> <molecule_form>
not specified

$$$$

  Mrv1812 01171911372D          

 19 18  0  0  0  0            999 V2000
    0.1466   -0.5279    0.0000 B   0  5  0  0  0  0  0  0  0  0  0  0
    0.8611   -0.1154    0.0000 O   0  3  0  0  0  0  0  0  0  0  0  0
    0.8611    0.7096    0.0000 C   0  0  0  0  0  0  0  0  0  0  0  0
    1.5756    1.1221    0.0000 C   0  0  0  0  0  0  0  0  0  0  0  0
    1.5756   -0.5279    0.0000 C   0  0  0  0  0  0  0  0  0  0  0  0
    2.2900   -0.1154    0.0000 C   0  0  0  0  0  0  0  0  0  0  0  0
   -0.2659    0.1866    0.0000 F   0  0  0  0  0  0  0  0  0  0  0  0
    0.5591   -1.2424    0.0000 F   0  0  0  0  0  0  0  0  0  0  0  0
   -0.5679   -0.9404    0.0000 F   0  0  0  0  0  0  0  0  0  0  0  0
    0.4077    1.3989    0.0000 H   0  0  0  0  0  0  0  0  0  0  0  0
    0.0375    0.7576    0.0000 H   0  0  0  0  0  0  0  0  0  0  0  0
    1.9881    0.4076    0.0000 H   0  0  0  0  0  0  0  0  0  0  0  0
    2.2900    1.5346    0.0000 H   0  0  0  0  0  0  0  0  0  0  0  0
    1.1631    1.8366    0.0000 H   0  0  0  0  0  0  0  0  0  0  0  0
    1.2053   -1.2652    0.0000 H   0  0  0  0  0  0  0  0  0  0  0  0
    1.9458   -1.2652    0.0000 H   0  0  0  0  0  0  0  0  0  0  0  0
    2.3977   -0.9334    0.0000 H   0  0  0  0  0  0  0  0  0  0  0  0
    3.0869   -0.3289    0.0000 H   0  0  0  0  0  0  0  0  0  0  0  0
    2.7923    0.5391    0.0000 H   0  0  0  0  0  0  0  0  0  0  0  0
  1  2  1  0  0  0  0
  2  3  1  0  0  0  0
  3  4  1  0  0  0  0
  2  5  1  0  0  0  0
  5  6  1  0  0  0  0
  1  7  1  0  0  0  0
  1  8  1  0  0  0  0
  1  9  1  0  0  0  0
  3 10  1  0  0  0  0
  3 11  1  0  0  0  0
  4 12  1  0  0  0  0
  4 13  1  0  0  0  0
  4 14  1  0  0  0  0
  5 15  1  0  0  0  0
  5 16  1  0  0  0  0
  6 17  1  0  0  0  0
  6 18  1  0  0  0  0
  6 19  1  0  0  0  0
M  CHG  2   1  -1   2   1
M  END
> <id>
205408

> <casrn>
109-63-7

> <smiles (First)>
[B-]([O+](CC)CC)(F)(F)F

> <Molecular weight>
141.9278106689453

> <name>
(Diethyl ether)trifluoroborane

> <Outcome>
1

> <Molecule (RDKit Mol) (InChI Code)>
InChI=1S/C4H10BF3O/c1-3-9(4-2)5(6,7)8/h3-4H2,1-2H3

> <reference>
ToxValDB

> <molecule_form>
not specified

$$$$

  Mrv1812 01171911372D          

 24 23  0  0  0  0            999 V2000
   -0.5773   -0.9186    0.0000 C   0  0  0  0  0  0  0  0  0  0  0  0
    0.1372   -0.5061    0.0000 C   0  0  0  0  0  0  0  0  0  0  0  0
    0.8516   -0.9186    0.0000 C   0  0  0  0  0  0  0  0  0  0  0  0
    0.8516   -1.7436    0.0000 C   0  0  0  0  0  0  0  0  0  0  0  0
    1.5661   -0.5061    0.0000 C   0  0  0  0  0  0  0  0  0  0  0  0
    2.2806   -0.9186    0.0000 O   0  0  0  0  0  0  0  0  0  0  0  0
    2.9950   -0.5061    0.0000 C   0  0  0  0  0  0  0  0  0  0  0  0
    2.9950    0.3189    0.0000 O   0  0  0  0  0  0  0  0  0  0  0  0
    3.7095   -0.9186    0.0000 C   0  0  0  0  0  0  0  0  0  0  0  0
    4.4240   -0.5061    0.0000 C   0  0  0  0  0  0  0  0  0  0  0  0
   -0.9898   -0.2041    0.0000 H   0  0  0  0  0  0  0  0  0  0  0  0
   -1.2918   -1.3311    0.0000 H   0  0  0  0  0  0  0  0  0  0  0  0
   -0.1648   -1.6331    0.0000 H   0  0  0  0  0  0  0  0  0  0  0  0
    0.5074    0.2312    0.0000 H   0  0  0  0  0  0  0  0  0  0  0  0
   -0.2331    0.2312    0.0000 H   0  0  0  0  0  0  0  0  0  0  0  0
    0.1372   -1.3311    0.0000 H   0  0  0  0  0  0  0  0  0  0  0  0
    0.2683   -2.3269    0.0000 H   0  0  0  0  0  0  0  0  0  0  0  0
    1.2641   -2.4581    0.0000 H   0  0  0  0  0  0  0  0  0  0  0  0
    1.6485   -1.5301    0.0000 H   0  0  0  0  0  0  0  0  0  0  0  0
    1.9364    0.2312    0.0000 H   0  0  0  0  0  0  0  0  0  0  0  0
    1.1958    0.2312    0.0000 H   0  0  0  0  0  0  0  0  0  0  0  0
    3.7095   -1.7436    0.0000 H   0  0  0  0  0  0  0  0  0  0  0  0
    5.1385   -0.9186    0.0000 H   0  0  0  0  0  0  0  0  0  0  0  0
    4.4240    0.3189    0.0000 H   0  0  0  0  0  0  0  0  0  0  0  0
  1  2  1  0  0  0  0
  2  3  1  0  0  0  0
  3  4  1  0  0  0  0
  3  5  1  0  0  0  0
  5  6  1  0  0  0  0
  6  7  1  0  0  0  0
  7  8  2  0  0  0  0
  7  9  1  0  0  0  0
  9 10  2  0  0  0  0
  1 11  1  0  0  0  0
  1 12  1  0  0  0  0
  1 13  1  0  0  0  0
  2 14  1  0  0  0  0
  2 15  1  0  0  0  0
  3 16  1  0  0  0  0
  4 17  1  0  0  0  0
  4 18  1  0  0  0  0
  4 19  1  0  0  0  0
  5 20  1  0  0  0  0
  5 21  1  0  0  0  0
  9 22  1  0  0  0  0
 10 23  1  0  0  0  0
 10 24  1  0  0  0  0
M  END
> <id>
263558

> <casrn>
44914-03-6

> <smiles (First)>
CCC(C)COC(=O)C=C

> <Molecular weight>
142.195556640625

> <name>
2-Propenoic acid, 2-methylbutyl ester

> <Outcome>
1

> <Molecule (RDKit Mol) (InChI Code)>
InChI=1S/C8H14O2/c1-4-7(3)6-10-8(9)5-2/h5,7H,2,4,6H2,1,3H3

> <reference>
ToxValDB

> <molecule_form>
not specified

$$$$

  Mrv1812 01171911372D          

 15 15  0  0  0  0            999 V2000
    1.4805    0.6325    0.0000 C   0  0  0  0  0  0  0  0  0  0  0  0
    0.7661    0.2200    0.0000 C   0  0  0  0  0  0  0  0  0  0  0  0
    0.0516    0.6325    0.0000 C   0  0  0  0  0  0  0  0  0  0  0  0
   -0.6629    0.2200    0.0000 C   0  0  0  0  0  0  0  0  0  0  0  0
   -0.6629   -0.6050    0.0000 C   0  0  0  0  0  0  0  0  0  0  0  0
   -1.3774   -1.0175    0.0000 Cl  0  0  0  0  0  0  0  0  0  0  0  0
    0.0516   -1.0175    0.0000 C   0  0  0  0  0  0  0  0  0  0  0  0
    0.7661   -0.6050    0.0000 C   0  0  0  0  0  0  0  0  0  0  0  0
    1.8930   -0.0820    0.0000 H   0  0  0  0  0  0  0  0  0  0  0  0
    2.1950    1.0450    0.0000 H   0  0  0  0  0  0  0  0  0  0  0  0
    1.0680    1.3470    0.0000 H   0  0  0  0  0  0  0  0  0  0  0  0
    0.0516    1.4575    0.0000 H   0  0  0  0  0  0  0  0  0  0  0  0
   -1.3774    0.6325    0.0000 H   0  0  0  0  0  0  0  0  0  0  0  0
    0.0516   -1.8425    0.0000 H   0  0  0  0  0  0  0  0  0  0  0  0
    1.4805   -1.0175    0.0000 H   0  0  0  0  0  0  0  0  0  0  0  0
  1  2  1  0  0  0  0
  3  2  4  0  0  0  0
  4  3  4  0  0  0  0
  5  4  4  0  0  0  0
  5  6  1  0  0  0  0
  7  5  4  0  0  0  0
  8  7  4  0  0  0  0
  2  8  4  0  0  0  0
  1  9  1  0  0  0  0
  1 10  1  0  0  0  0
  1 11  1  0  0  0  0
  3 12  1  0  0  0  0
  4 13  1  0  0  0  0
  7 14  1  0  0  0  0
  8 15  1  0  0  0  0
M  END
> <id>
200993

> <casrn>
106-43-4

> <smiles (First)>
Cc1ccc(Cl)cc1

> <Molecular weight>
126.58348083496094

> <name>
4-Chlorotoluene

> <Outcome>
0

> <Molecule (RDKit Mol) (InChI Code)>
InChI=1S/C7H7Cl/c1-6-2-4-7(8)5-3-6/h2-5H,1H3

> <reference>
ToxValDB

> <molecule_form>
not specified

$$$$

  Mrv1812 01171911372D          

 26 25  0  0  0  0            999 V2000
    0.0412   -1.6691    0.0000 C   0  0  0  0  0  0  0  0  0  0  0  0
    0.8662   -1.6691    0.0000 C   0  0  0  0  0  0  0  0  0  0  0  0
    1.2787   -0.9546    0.0000 N   0  0  0  0  0  0  0  0  0  0  0  0
    0.8662   -0.2401    0.0000 C   0  0  0  0  0  0  0  0  0  0  0  0
    1.2787    0.4743    0.0000 C   0  0  0  0  0  0  0  0  0  0  0  0
    2.1037   -0.9546    0.0000 C   0  0  0  0  0  0  0  0  0  0  0  0
    2.5162   -1.6691    0.0000 O   0  0  0  0  0  0  0  0  0  0  0  0
    2.5162   -0.2401    0.0000 C   0  0  0  0  0  0  0  0  0  0  0  0
    3.3412   -0.2401    0.0000 C   0  0  0  0  0  0  0  0  0  0  0  0
    3.7537    0.4743    0.0000 C   0  0  0  0  0  0  0  0  0  0  0  0
    3.7537   -0.9546    0.0000 O   0  0  0  0  0  0  0  0  0  0  0  0
    0.0412   -0.8441    0.0000 H   0  0  0  0  0  0  0  0  0  0  0  0
   -0.7838   -1.6691    0.0000 H   0  0  0  0  0  0  0  0  0  0  0  0
    0.0412   -2.4941    0.0000 H   0  0  0  0  0  0  0  0  0  0  0  0
    0.9142   -2.4927    0.0000 H   0  0  0  0  0  0  0  0  0  0  0  0
    1.5555   -2.1224    0.0000 H   0  0  0  0  0  0  0  0  0  0  0  0
    0.1290    0.1301    0.0000 H   0  0  0  0  0  0  0  0  0  0  0  0
    0.1290   -0.6104    0.0000 H   0  0  0  0  0  0  0  0  0  0  0  0
    1.9932    0.0618    0.0000 H   0  0  0  0  0  0  0  0  0  0  0  0
    1.6912    1.1888    0.0000 H   0  0  0  0  0  0  0  0  0  0  0  0
    0.5643    0.8868    0.0000 H   0  0  0  0  0  0  0  0  0  0  0  0
    2.7298    0.5567    0.0000 H   0  0  0  0  0  0  0  0  0  0  0  0
    2.9287   -0.9546    0.0000 H   0  0  0  0  0  0  0  0  0  0  0  0
    4.4682    0.0618    0.0000 H   0  0  0  0  0  0  0  0  0  0  0  0
    4.1662    1.1888    0.0000 H   0  0  0  0  0  0  0  0  0  0  0  0
    3.0393    0.8868    0.0000 H   0  0  0  0  0  0  0  0  0  0  0  0
  1  2  1  0  0  0  0
  2  3  1  0  0  0  0
  3  4  1  0  0  0  0
  4  5  1  0  0  0  0
  3  6  1  0  0  0  0
  6  7  2  0  0  0  0
  6  8  1  0  0  0  0
  8  9  1  0  0  0  0
  9 10  1  0  0  0  0
  9 11  2  0  0  0  0
  1 12  1  0  0  0  0
  1 13  1  0  0  0  0
  1 14  1  0  0  0  0
  2 15  1  0  0  0  0
  2 16  1  0  0  0  0
  4 17  1  0  0  0  0
  4 18  1  0  0  0  0
  5 19  1  0  0  0  0
  5 20  1  0  0  0  0
  5 21  1  0  0  0  0
  8 22  1  0  0  0  0
  8 23  1  0  0  0  0
 10 24  1  0  0  0  0
 10 25  1  0  0  0  0
 10 26  1  0  0  0  0
M  END
> <id>
247691

> <casrn>
2235-46-3

> <smiles (First)>
CCN(CC)C(=O)CC(C)=O

> <Molecular weight>
157.210205078125

> <name>
N,N-diethyl-3-oxobutyramide

> <Outcome>
1

> <Molecule (RDKit Mol) (InChI Code)>
InChI=1S/C8H15NO2/c1-4-9(5-2)8(11)6-7(3)10/h4-6H2,1-3H3

> <reference>
ToxValDB

> <molecule_form>
not specified

$$$$

  Mrv1812 01171911372D          

 20 20  0  0  0  0            999 V2000
    2.1732    0.0684    0.0000 C   0  0  0  0  0  0  0  0  0  0  0  0
    1.4588    0.4809    0.0000 C   0  0  0  0  0  0  0  0  0  0  0  0
    0.7443    0.0684    0.0000 C   0  0  0  0  0  0  0  0  0  0  0  0
    0.0298    0.4809    0.0000 C   0  0  0  0  0  0  0  0  0  0  0  0
   -0.6847    0.0684    0.0000 C   0  0  0  0  0  0  0  0  0  0  0  0
   -0.6847   -0.7566    0.0000 C   0  0  0  0  0  0  0  0  0  0  0  0
   -1.3991   -1.1691    0.0000 C   0  0  0  0  0  0  0  0  0  0  0  0
    0.0298   -1.1691    0.0000 N   0  0  0  0  0  0  0  0  0  0  0  0
    0.7443   -0.7566    0.0000 C   0  0  0  0  0  0  0  0  0  0  0  0
    1.7607   -0.6461    0.0000 H   0  0  0  0  0  0  0  0  0  0  0  0
    2.8877   -0.3441    0.0000 H   0  0  0  0  0  0  0  0  0  0  0  0
    2.5857    0.7829    0.0000 H   0  0  0  0  0  0  0  0  0  0  0  0
    1.8290    1.2182    0.0000 H   0  0  0  0  0  0  0  0  0  0  0  0
    1.0885    1.2182    0.0000 H   0  0  0  0  0  0  0  0  0  0  0  0
    0.0298    1.3059    0.0000 H   0  0  0  0  0  0  0  0  0  0  0  0
   -1.3991    0.4809    0.0000 H   0  0  0  0  0  0  0  0  0  0  0  0
   -1.8116   -0.4546    0.0000 H   0  0  0  0  0  0  0  0  0  0  0  0
   -2.1136   -1.5816    0.0000 H   0  0  0  0  0  0  0  0  0  0  0  0
   -0.9866   -1.8836    0.0000 H   0  0  0  0  0  0  0  0  0  0  0  0
    1.4588   -1.1691    0.0000 H   0  0  0  0  0  0  0  0  0  0  0  0
  1  2  1  0  0  0  0
  2  3  1  0  0  0  0
  4  3  4  0  0  0  0
  5  4  4  0  0  0  0
  6  5  4  0  0  0  0
  6  7  1  0  0  0  0
  8  6  4  0  0  0  0
  9  8  4  0  0  0  0
  3  9  4  0  0  0  0
  1 10  1  0  0  0  0
  1 11  1  0  0  0  0
  1 12  1  0  0  0  0
  2 13  1  0  0  0  0
  2 14  1  0  0  0  0
  4 15  1  0  0  0  0
  5 16  1  0  0  0  0
  7 17  1  0  0  0  0
  7 18  1  0  0  0  0
  7 19  1  0  0  0  0
  9 20  1  0  0  0  0
M  END
> <id>
199935; 934704

> <casrn>
104-90-5

> <smiles (First)>
CCc1ccc(C)nc1

> <Molecular weight>
121.17964172363281

> <name>
5-Ethyl-2-methylpyridine

> <Outcome>
1

> <Molecule (RDKit Mol) (InChI Code)>
InChI=1S/C8H11N/c1-3-8-5-4-7(2)9-6-8/h4-6H,3H2,1-2H3

> <reference>
ToxValDB

> <molecule_form>
not specified

$$$$

  Mrv1812 01171911372D          

 20 20  0  0  0  0            999 V2000
    3.2734    0.5960    0.0000 O   0  0  0  0  0  0  0  0  0  0  0  0
    2.5590    1.0085    0.0000 C   0  0  0  0  0  0  0  0  0  0  0  0
    1.8445    0.5960    0.0000 C   0  0  0  0  0  0  0  0  0  0  0  0
    1.1300    1.0085    0.0000 C   0  0  0  0  0  0  0  0  0  0  0  0
    0.4156    0.5960    0.0000 C   0  0  0  0  0  0  0  0  0  0  0  0
   -0.2989    1.0085    0.0000 C   0  0  0  0  0  0  0  0  0  0  0  0
   -1.0134    0.5960    0.0000 C   0  0  0  0  0  0  0  0  0  0  0  0
   -1.0134   -0.2290    0.0000 C   0  0  0  0  0  0  0  0  0  0  0  0
   -0.2989   -0.6415    0.0000 C   0  0  0  0  0  0  0  0  0  0  0  0
    0.4156   -0.2290    0.0000 C   0  0  0  0  0  0  0  0  0  0  0  0
    3.2734   -0.2290    0.0000 H   0  0  0  0  0  0  0  0  0  0  0  0
    2.9292    1.7458    0.0000 H   0  0  0  0  0  0  0  0  0  0  0  0
    2.1887    1.7458    0.0000 H   0  0  0  0  0  0  0  0  0  0  0  0
    1.8445   -0.2290    0.0000 H   0  0  0  0  0  0  0  0  0  0  0  0
    1.1300    1.8335    0.0000 H   0  0  0  0  0  0  0  0  0  0  0  0
   -0.2989    1.8335    0.0000 H   0  0  0  0  0  0  0  0  0  0  0  0
   -1.7279    1.0085    0.0000 H   0  0  0  0  0  0  0  0  0  0  0  0
   -1.7279   -0.6415    0.0000 H   0  0  0  0  0  0  0  0  0  0  0  0
   -0.2989   -1.4665    0.0000 H   0  0  0  0  0  0  0  0  0  0  0  0
    1.1300   -0.6415    0.0000 H   0  0  0  0  0  0  0  0  0  0  0  0
  1  2  1  0  0  0  0
  3  2  1  4  0  0  0
  3  4  2  0  0  0  0
  4  5  1  0  0  0  0
  6  5  4  0  0  0  0
  7  6  4  0  0  0  0
  8  7  4  0  0  0  0
  9  8  4  0  0  0  0
 10  9  4  0  0  0  0
  5 10  4  0  0  0  0
  1 11  1  0  0  0  0
  2 12  1  0  0  0  0
  2 13  1  0  0  0  0
  3 14  1  0  0  0  0
  4 15  1  0  0  0  0
  6 16  1  0  0  0  0
  7 17  1  0  0  0  0
  8 18  1  0  0  0  0
  9 19  1  0  0  0  0
 10 20  1  0  0  0  0
M  END
> <id>
199540

> <casrn>
104-54-1

> <smiles (First)>
OC\C=C/c1ccccc1

> <Molecular weight>
134.17510986328125

> <name>
3-Phenyl-2-propen-1-ol

> <Outcome>
0

> <Molecule (RDKit Mol) (InChI Code)>
InChI=1S/C9H10O/c10-8-4-7-9-5-2-1-3-6-9/h1-7,10H,8H2

> <reference>
ToxValDB

> <molecule_form>
not specified

$$$$

  Mrv1812 01171911372D          

 19 18  0  0  0  0            999 V2000
   -0.4707    0.6758    0.0000 C   0  0  0  0  0  0  0  0  0  0  0  0
    0.2438    1.0883    0.0000 C   0  0  0  0  0  0  0  0  0  0  0  0
    0.2438    1.9133    0.0000 C   0  0  0  0  0  0  0  0  0  0  0  0
    0.9582    0.6758    0.0000 C   0  0  0  0  0  0  0  0  0  0  0  0
    1.6727    1.0883    0.0000 O   0  0  0  0  0  0  0  0  0  0  0  0
    2.3872    0.6758    0.0000 C   0  0  0  0  0  0  0  0  0  0  0  0
    3.1016    1.0883    0.0000 C   0  0  0  0  0  0  0  0  0  0  0  0
   -0.8832    1.3903    0.0000 H   0  0  0  0  0  0  0  0  0  0  0  0
   -1.1852    0.2633    0.0000 H   0  0  0  0  0  0  0  0  0  0  0  0
   -0.0582   -0.0387    0.0000 H   0  0  0  0  0  0  0  0  0  0  0  0
   -0.4707    1.5008    0.0000 H   0  0  0  0  0  0  0  0  0  0  0  0
    1.0406    1.6998    0.0000 H   0  0  0  0  0  0  0  0  0  0  0  0
    0.6563    2.6278    0.0000 H   0  0  0  0  0  0  0  0  0  0  0  0
   -0.3396    2.4966    0.0000 H   0  0  0  0  0  0  0  0  0  0  0  0
    0.5880   -0.0615    0.0000 H   0  0  0  0  0  0  0  0  0  0  0  0
    1.3285   -0.0615    0.0000 H   0  0  0  0  0  0  0  0  0  0  0  0
    2.3872   -0.1492    0.0000 H   0  0  0  0  0  0  0  0  0  0  0  0
    3.8161    0.6758    0.0000 H   0  0  0  0  0  0  0  0  0  0  0  0
    3.1016    1.9133    0.0000 H   0  0  0  0  0  0  0  0  0  0  0  0
  1  2  1  0  0  0  0
  2  3  1  0  0  0  0
  2  4  1  0  0  0  0
  4  5  1  0  0  0  0
  5  6  1  0  0  0  0
  6  7  2  0  0  0  0
  1  8  1  0  0  0  0
  1  9  1  0  0  0  0
  1 10  1  0  0  0  0
  2 11  1  0  0  0  0
  3 12  1  0  0  0  0
  3 13  1  0  0  0  0
  3 14  1  0  0  0  0
  4 15  1  0  0  0  0
  4 16  1  0  0  0  0
  6 17  1  0  0  0  0
  7 18  1  0  0  0  0
  7 19  1  0  0  0  0
M  END
> <id>
205273; 901226

> <casrn>
109-53-5

> <smiles (First)>
CC(C)COC=C

> <Molecular weight>
100.15888214111328

> <name>
Vinyl isobutyl ether

> <Outcome>
0

> <Molecule (RDKit Mol) (InChI Code)>
InChI=1S/C6H12O/c1-4-7-5-6(2)3/h4,6H,1,5H2,2-3H3

> <reference>
ToxValDB

> <molecule_form>
not specified

$$$$

  Mrv1812 01171911372D          

 14 14  0  0  0  0            999 V2000
    2.1829    0.2652    0.0000 Cl  0  0  0  0  0  0  0  0  0  0  0  0
    1.4684    0.6777    0.0000 C   0  0  0  0  0  0  0  0  0  0  0  0
    1.4684    1.5027    0.0000 O   0  0  0  0  0  0  0  0  0  0  0  0
    0.7540    0.2652    0.0000 C   0  0  0  0  0  0  0  0  0  0  0  0
    0.0395    0.6777    0.0000 C   0  0  0  0  0  0  0  0  0  0  0  0
   -0.6750    0.2652    0.0000 C   0  0  0  0  0  0  0  0  0  0  0  0
   -0.6750   -0.5598    0.0000 C   0  0  0  0  0  0  0  0  0  0  0  0
    0.0395   -0.9723    0.0000 C   0  0  0  0  0  0  0  0  0  0  0  0
    0.7540   -0.5598    0.0000 C   0  0  0  0  0  0  0  0  0  0  0  0
    0.0395    1.5027    0.0000 H   0  0  0  0  0  0  0  0  0  0  0  0
   -1.3895    0.6777    0.0000 H   0  0  0  0  0  0  0  0  0  0  0  0
   -1.3895   -0.9723    0.0000 H   0  0  0  0  0  0  0  0  0  0  0  0
    0.0395   -1.7973    0.0000 H   0  0  0  0  0  0  0  0  0  0  0  0
    1.4684   -0.9723    0.0000 H   0  0  0  0  0  0  0  0  0  0  0  0
  1  2  1  0  0  0  0
  2  3  2  0  0  0  0
  2  4  1  0  0  0  0
  5  4  4  0  0  0  0
  6  5  4  0  0  0  0
  7  6  4  0  0  0  0
  8  7  4  0  0  0  0
  9  8  4  0  0  0  0
  4  9  4  0  0  0  0
  5 10  1  0  0  0  0
  6 11  1  0  0  0  0
  7 12  1  0  0  0  0
  8 13  1  0  0  0  0
  9 14  1  0  0  0  0
M  END
> <id>
798444; 802352

> <casrn>
98-88-4

> <smiles (First)>
ClC(=O)c1ccccc1

> <Molecular weight>
140.56700134277344

> <name>
Benzoyl chloride

> <Outcome>
1

> <Molecule (RDKit Mol) (InChI Code)>
InChI=1S/C7H5ClO/c8-7(9)6-4-2-1-3-5-6/h1-5H

> <reference>
ToxValDB

> <molecule_form>
not specified

$$$$

  Mrv1812 01171911372D          

 34 34  0  0  0  0            999 V2000
    2.4193   -2.1109    0.0000 C   0  0  0  0  0  0  0  0  0  0  0  0
    2.4193   -1.2859    0.0000 C   0  0  0  0  0  0  0  0  0  0  0  0
    3.1338   -0.8734    0.0000 O   0  0  0  0  0  0  0  0  0  0  0  0
    1.7049   -0.8734    0.0000 C   0  0  0  0  0  0  0  0  0  0  0  0
    1.7049   -0.0484    0.0000 C   0  0  0  0  0  0  0  0  0  0  0  0
    0.9904    0.3641    0.0000 C   0  0  0  0  0  0  0  0  0  0  0  0
    0.9904    1.1891    0.0000 C   0  0  0  0  0  0  0  0  0  0  0  0
    1.7049    1.6016    0.0000 C   0  0  0  0  0  0  0  0  0  0  0  0
    0.2759    1.6016    0.0000 C   0  0  0  0  0  0  0  0  0  0  0  0
   -0.4386    1.1891    0.0000 C   0  0  0  0  0  0  0  0  0  0  0  0
   -0.4386    0.3641    0.0000 C   0  0  0  0  0  0  0  0  0  0  0  0
    0.2759   -0.0484    0.0000 C   0  0  0  0  0  0  0  0  0  0  0  0
   -0.2544   -0.6804    0.0000 C   0  0  0  0  0  0  0  0  0  0  0  0
    0.8062   -0.6804    0.0000 C   0  0  0  0  0  0  0  0  0  0  0  0
    1.5943   -2.1109    0.0000 H   0  0  0  0  0  0  0  0  0  0  0  0
    2.4193   -2.9359    0.0000 H   0  0  0  0  0  0  0  0  0  0  0  0
    3.2443   -2.1109    0.0000 H   0  0  0  0  0  0  0  0  0  0  0  0
    1.4084   -1.6433    0.0000 H   0  0  0  0  0  0  0  0  0  0  0  0
    2.4193    0.3641    0.0000 H   0  0  0  0  0  0  0  0  0  0  0  0
    2.1174    0.8871    0.0000 H   0  0  0  0  0  0  0  0  0  0  0  0
    2.4193    2.0141    0.0000 H   0  0  0  0  0  0  0  0  0  0  0  0
    1.2924    2.3161    0.0000 H   0  0  0  0  0  0  0  0  0  0  0  0
    0.6462    2.3389    0.0000 H   0  0  0  0  0  0  0  0  0  0  0  0
   -0.0944    2.3389    0.0000 H   0  0  0  0  0  0  0  0  0  0  0  0
   -0.8919    1.8784    0.0000 H   0  0  0  0  0  0  0  0  0  0  0  0
   -1.2622    1.2371    0.0000 H   0  0  0  0  0  0  0  0  0  0  0  0
   -1.2622    0.3161    0.0000 H   0  0  0  0  0  0  0  0  0  0  0  0
   -0.8919   -0.3252    0.0000 H   0  0  0  0  0  0  0  0  0  0  0  0
   -0.9247   -1.1613    0.0000 H   0  0  0  0  0  0  0  0  0  0  0  0
   -0.1049   -1.4917    0.0000 H   0  0  0  0  0  0  0  0  0  0  0  0
    0.5433   -0.8909    0.0000 H   0  0  0  0  0  0  0  0  0  0  0  0
    0.6878   -1.4968    0.0000 H   0  0  0  0  0  0  0  0  0  0  0  0
    1.2772   -1.3577    0.0000 H   0  0  0  0  0  0  0  0  0  0  0  0
    1.2319    0.0263    0.0000 H   0  0  0  0  0  0  0  0  0  0  0  0
  1  2  1  0  0  0  0
  2  3  2  0  0  0  0
  4  2  1  4  0  0  0
  4  5  2  0  0  0  0
  5  6  1  0  0  0  0
  7  6  2  0  0  0  0
  7  8  1  0  0  0  0
  9  7  1  0  0  0  0
 10  9  1  0  0  0  0
 11 10  1  0  0  0  0
 12 11  1  0  0  0  0
 12 13  1  0  0  0  0
 12 14  1  0  0  0  0
  6 12  1  0  0  0  0
  1 15  1  0  0  0  0
  1 16  1  0  0  0  0
  1 17  1  0  0  0  0
  4 18  1  0  0  0  0
  5 19  1  0  0  0  0
  8 20  1  0  0  0  0
  8 21  1  0  0  0  0
  8 22  1  0  0  0  0
  9 23  1  0  0  0  0
  9 24  1  0  0  0  0
 10 25  1  0  0  0  0
 10 26  1  0  0  0  0
 11 27  1  0  0  0  0
 11 28  1  0  0  0  0
 13 29  1  0  0  0  0
 13 30  1  0  0  0  0
 13 31  1  0  0  0  0
 14 32  1  0  0  0  0
 14 33  1  0  0  0  0
 14 34  1  0  0  0  0
M  END
> <id>
238438

> <casrn>
14901-07-6

> <smiles (First)>
CC(=O)/C=C/C1=C(C)CCCC1(C)C

> <Molecular weight>
192.29730224609375

> <name>
4-(2,6,6-Trimethyl-cyclohex-1-enyl)-but-3-en-2-one

> <Outcome>
0

> <Molecule (RDKit Mol) (InChI Code)>
InChI=1S/C13H20O/c1-10-6-5-9-13(3,4)12(10)8-7-11(2)14/h7-8H,5-6,9H2,1-4H3

> <reference>
ToxValDB

> <molecule_form>
not specified

$$$$

  Mrv1812 01171911372D          

 17 16  0  0  0  0            999 V2000
    3.2130   -0.7702    0.0000 C   0  0  0  0  0  0  0  0  0  0  0  0
    2.8005   -0.0557    0.0000 O   0  0  0  0  0  0  0  0  0  0  0  0
    1.9755   -0.0557    0.0000 C   0  0  0  0  0  0  0  0  0  0  0  0
    1.5630    0.6587    0.0000 O   0  0  0  0  0  0  0  0  0  0  0  0
    0.7380    0.6587    0.0000 C   0  0  0  0  0  0  0  0  0  0  0  0
    1.5630   -0.7702    0.0000 O   0  0  0  0  0  0  0  0  0  0  0  0
    0.7380   -0.7702    0.0000 C   0  0  0  0  0  0  0  0  0  0  0  0
    2.4985   -1.1827    0.0000 H   0  0  0  0  0  0  0  0  0  0  0  0
    3.6255   -1.4847    0.0000 H   0  0  0  0  0  0  0  0  0  0  0  0
    3.9275   -0.3577    0.0000 H   0  0  0  0  0  0  0  0  0  0  0  0
    2.3880    0.6587    0.0000 H   0  0  0  0  0  0  0  0  0  0  0  0
    0.7380    1.4837    0.0000 H   0  0  0  0  0  0  0  0  0  0  0  0
   -0.0870    0.6587    0.0000 H   0  0  0  0  0  0  0  0  0  0  0  0
    0.7380   -0.1663    0.0000 H   0  0  0  0  0  0  0  0  0  0  0  0
   -0.0242   -0.4545    0.0000 H   0  0  0  0  0  0  0  0  0  0  0  0
    0.1546   -1.3536    0.0000 H   0  0  0  0  0  0  0  0  0  0  0  0
    1.0537   -1.5324    0.0000 H   0  0  0  0  0  0  0  0  0  0  0  0
  1  2  1  0  0  0  0
  2  3  1  0  0  0  0
  3  4  1  0  0  0  0
  4  5  1  0  0  0  0
  3  6  1  0  0  0  0
  6  7  1  0  0  0  0
  1  8  1  0  0  0  0
  1  9  1  0  0  0  0
  1 10  1  0  0  0  0
  3 11  1  0  0  0  0
  5 12  1  0  0  0  0
  5 13  1  0  0  0  0
  5 14  1  0  0  0  0
  7 15  1  0  0  0  0
  7 16  1  0  0  0  0
  7 17  1  0  0  0  0
M  END
> <id>
238606

> <casrn>
149-73-5

> <smiles (First)>
COC(OC)OC

> <Molecular weight>
106.12039947509766

> <name>
Trimethoxymethane

> <Outcome>
0

> <Molecule (RDKit Mol) (InChI Code)>
InChI=1S/C4H10O3/c1-5-4(6-2)7-3/h4H,1-3H3

> <reference>
ToxValDB

> <molecule_form>
not specified

$$$$

  Mrv1812 01171911372D          

 40 41  0  0  0  0            999 V2000
    0.1272   -0.3971    0.0000 C   0  0  0  0  0  0  0  0  0  0  0  0
    0.8417   -0.8096    0.0000 C   0  0  0  0  0  0  0  0  0  0  0  0
    0.8417   -1.6346    0.0000 N   0  0  0  0  0  0  0  0  0  0  0  0
    1.5561   -2.0471    0.0000 C   0  0  0  0  0  0  0  0  0  0  0  0
    1.5561   -2.8721    0.0000 O   0  0  0  0  0  0  0  0  0  0  0  0
    2.2706   -1.6346    0.0000 N   0  0  0  0  0  0  0  0  0  0  0  0
    2.2706   -0.8096    0.0000 C   0  0  0  0  0  0  0  0  0  0  0  0
    2.9851   -0.3971    0.0000 C   0  0  0  0  0  0  0  0  0  0  0  0
    2.9851   -2.0471    0.0000 C   0  0  0  0  0  0  0  0  0  0  0  0
    2.9851   -2.8721    0.0000 C   0  0  0  0  0  0  0  0  0  0  0  0
    3.6996   -3.2846    0.0000 C   0  0  0  0  0  0  0  0  0  0  0  0
    4.4140   -2.8721    0.0000 C   0  0  0  0  0  0  0  0  0  0  0  0
    4.4140   -2.0471    0.0000 C   0  0  0  0  0  0  0  0  0  0  0  0
    3.6996   -1.6346    0.0000 C   0  0  0  0  0  0  0  0  0  0  0  0
    0.1272   -2.0471    0.0000 C   0  0  0  0  0  0  0  0  0  0  0  0
   -0.5873   -1.6346    0.0000 C   0  0  0  0  0  0  0  0  0  0  0  0
   -1.3017   -2.0471    0.0000 C   0  0  0  0  0  0  0  0  0  0  0  0
   -1.3017   -2.8721    0.0000 C   0  0  0  0  0  0  0  0  0  0  0  0
   -0.5873   -3.2846    0.0000 C   0  0  0  0  0  0  0  0  0  0  0  0
    0.1272   -2.8721    0.0000 C   0  0  0  0  0  0  0  0  0  0  0  0
    0.5397    0.3174    0.0000 H   0  0  0  0  0  0  0  0  0  0  0  0
   -0.5873    0.0154    0.0000 H   0  0  0  0  0  0  0  0  0  0  0  0
   -0.2853   -1.1115    0.0000 H   0  0  0  0  0  0  0  0  0  0  0  0
    1.6653   -0.7616    0.0000 H   0  0  0  0  0  0  0  0  0  0  0  0
    1.2950   -0.1203    0.0000 H   0  0  0  0  0  0  0  0  0  0  0  0
    2.0888   -0.0049    0.0000 H   0  0  0  0  0  0  0  0  0  0  0  0
    2.9851   -1.2221    0.0000 H   0  0  0  0  0  0  0  0  0  0  0  0
    3.7820   -0.6106    0.0000 H   0  0  0  0  0  0  0  0  0  0  0  0
    3.3976    0.3174    0.0000 H   0  0  0  0  0  0  0  0  0  0  0  0
    2.4017    0.1863    0.0000 H   0  0  0  0  0  0  0  0  0  0  0  0
    2.2706   -3.2846    0.0000 H   0  0  0  0  0  0  0  0  0  0  0  0
    3.6996   -4.1096    0.0000 H   0  0  0  0  0  0  0  0  0  0  0  0
    5.1285   -3.2846    0.0000 H   0  0  0  0  0  0  0  0  0  0  0  0
    5.1285   -1.6346    0.0000 H   0  0  0  0  0  0  0  0  0  0  0  0
    4.1121   -0.9201    0.0000 H   0  0  0  0  0  0  0  0  0  0  0  0
   -1.1706   -1.0512    0.0000 H   0  0  0  0  0  0  0  0  0  0  0  0
   -2.0162   -1.6346    0.0000 H   0  0  0  0  0  0  0  0  0  0  0  0
   -2.0162   -3.2846    0.0000 H   0  0  0  0  0  0  0  0  0  0  0  0
   -0.5873   -4.1096    0.0000 H   0  0  0  0  0  0  0  0  0  0  0  0
    0.8417   -3.2846    0.0000 H   0  0  0  0  0  0  0  0  0  0  0  0
  1  2  1  0  0  0  0
  2  3  1  0  0  0  0
  3  4  1  0  0  0  0
  4  5  2  0  0  0  0
  4  6  1  0  0  0  0
  6  7  1  0  0  0  0
  7  8  1  0  0  0  0
  6  9  1  0  0  0  0
 10  9  4  0  0  0  0
 11 10  4  0  0  0  0
 12 11  4  0  0  0  0
 13 12  4  0  0  0  0
 14 13  4  0  0  0  0
  3 15  1  0  0  0  0
 16 15  4  0  0  0  0
 17 16  4  0  0  0  0
 18 17  4  0  0  0  0
 19 18  4  0  0  0  0
 20 19  4  0  0  0  0
  9 14  4  0  0  0  0
 15 20  4  0  0  0  0
  1 21  1  0  0  0  0
  1 22  1  0  0  0  0
  1 23  1  0  0  0  0
  2 24  1  0  0  0  0
  2 25  1  0  0  0  0
  7 26  1  0  0  0  0
  7 27  1  0  0  0  0
  8 28  1  0  0  0  0
  8 29  1  0  0  0  0
  8 30  1  0  0  0  0
 10 31  1  0  0  0  0
 11 32  1  0  0  0  0
 12 33  1  0  0  0  0
 13 34  1  0  0  0  0
 14 35  1  0  0  0  0
 16 36  1  0  0  0  0
 17 37  1  0  0  0  0
 18 38  1  0  0  0  0
 19 39  1  0  0  0  0
 20 40  1  0  0  0  0
M  END
> <id>
335646

> <casrn>
85-98-3

> <smiles (First)>
CCN(C(=O)N(CC)c1ccccc1)c2ccccc2

> <Molecular weight>
268.353515625

> <name>
N,N-Diethylcarbanilide

> <Outcome>
0

> <Molecule (RDKit Mol) (InChI Code)>
InChI=1S/C17H20N2O/c1-3-18(15-11-7-5-8-12-15)17(20)19(4-2)16-13-9-6-10-14-16/h5-14H,3-4H2,1-2H3

> <reference>
ToxValDB

> <molecule_form>
not specified

$$$$

  Mrv1812 01171911372D          

 27 27  0  0  0  0            999 V2000
    1.1810    1.0907    0.0000 C   0  0  0  0  0  0  0  0  0  0  0  0
    0.4665    0.6782    0.0000 C   0  0  0  0  0  0  0  0  0  0  0  0
   -0.2480    1.0907    0.0000 C   0  0  0  0  0  0  0  0  0  0  0  0
   -0.9625    0.6782    0.0000 C   0  0  0  0  0  0  0  0  0  0  0  0
   -0.9625   -0.1468    0.0000 C   0  0  0  0  0  0  0  0  0  0  0  0
   -0.2480   -0.5593    0.0000 C   0  0  0  0  0  0  0  0  0  0  0  0
    0.4665   -0.1468    0.0000 C   0  0  0  0  0  0  0  0  0  0  0  0
   -1.6769   -0.5593    0.0000 C   0  0  0  0  0  0  0  0  0  0  0  0
   -2.3914   -0.9718    0.0000 C   0  0  0  0  0  0  0  0  0  0  0  0
   -2.0894    0.1551    0.0000 C   0  0  0  0  0  0  0  0  0  0  0  0
   -1.2644   -1.2738    0.0000 C   0  0  0  0  0  0  0  0  0  0  0  0
    1.5935    0.3762    0.0000 H   0  0  0  0  0  0  0  0  0  0  0  0
    1.8954    1.5032    0.0000 H   0  0  0  0  0  0  0  0  0  0  0  0
    0.7685    1.8051    0.0000 H   0  0  0  0  0  0  0  0  0  0  0  0
   -0.2480    1.9157    0.0000 H   0  0  0  0  0  0  0  0  0  0  0  0
   -1.6769    1.0907    0.0000 H   0  0  0  0  0  0  0  0  0  0  0  0
   -0.2480   -1.3843    0.0000 H   0  0  0  0  0  0  0  0  0  0  0  0
    1.1810   -0.5593    0.0000 H   0  0  0  0  0  0  0  0  0  0  0  0
   -2.8039   -0.2574    0.0000 H   0  0  0  0  0  0  0  0  0  0  0  0
   -3.1059   -1.3843    0.0000 H   0  0  0  0  0  0  0  0  0  0  0  0
   -1.9789   -1.6863    0.0000 H   0  0  0  0  0  0  0  0  0  0  0  0
   -1.2715    0.2628    0.0000 H   0  0  0  0  0  0  0  0  0  0  0  0
   -1.8759    0.9520    0.0000 H   0  0  0  0  0  0  0  0  0  0  0  0
   -2.7439    0.6574    0.0000 H   0  0  0  0  0  0  0  0  0  0  0  0
   -1.1567   -2.0917    0.0000 H   0  0  0  0  0  0  0  0  0  0  0  0
   -0.4675   -1.4873    0.0000 H   0  0  0  0  0  0  0  0  0  0  0  0
   -0.7622   -0.6193    0.0000 H   0  0  0  0  0  0  0  0  0  0  0  0
  1  2  1  0  0  0  0
  3  2  4  0  0  0  0
  4  3  4  0  0  0  0
  5  4  4  0  0  0  0
  6  5  4  0  0  0  0
  7  6  4  0  0  0  0
  5  8  1  0  0  0  0
  8  9  1  0  0  0  0
  8 10  1  0  0  0  0
  8 11  1  0  0  0  0
  2  7  4  0  0  0  0
  1 12  1  0  0  0  0
  1 13  1  0  0  0  0
  1 14  1  0  0  0  0
  3 15  1  0  0  0  0
  4 16  1  0  0  0  0
  6 17  1  0  0  0  0
  7 18  1  0  0  0  0
  9 19  1  0  0  0  0
  9 20  1  0  0  0  0
  9 21  1  0  0  0  0
 10 22  1  0  0  0  0
 10 23  1  0  0  0  0
 10 24  1  0  0  0  0
 11 25  1  0  0  0  0
 11 26  1  0  0  0  0
 11 27  1  0  0  0  0
M  END
> <id>
353878

> <casrn>
98-51-1

> <smiles (First)>
Cc1ccc(cc1)C(C)(C)C

> <Molecular weight>
148.2447509765625

> <name>
4-tert-Butyltoluene

> <Outcome>
1

> <Molecule (RDKit Mol) (InChI Code)>
InChI=1S/C11H16/c1-9-5-7-10(8-6-9)11(2,3)4/h5-8H,1-4H3

> <reference>
ToxValDB

> <molecule_form>
not specified

$$$$

  Mrv1812 01171911372D          

 15 14  0  0  0  0            999 V2000
    1.3358    0.3537    0.0000 C   0  0  0  0  0  0  0  0  0  0  0  0
    0.5108    0.3537    0.0000 C   0  0  0  0  0  0  0  0  0  0  0  0
    0.0983   -0.3608    0.0000 C   0  0  0  0  0  0  0  0  0  0  0  0
   -0.7267   -0.3608    0.0000 C   0  0  0  0  0  0  0  0  0  0  0  0
   -1.1392   -1.0753    0.0000 C   0  0  0  0  0  0  0  0  0  0  0  0
    1.3358   -0.4713    0.0000 H   0  0  0  0  0  0  0  0  0  0  0  0
    2.1608    0.3537    0.0000 H   0  0  0  0  0  0  0  0  0  0  0  0
    1.3358    1.1787    0.0000 H   0  0  0  0  0  0  0  0  0  0  0  0
    0.4628    1.1773    0.0000 H   0  0  0  0  0  0  0  0  0  0  0  0
   -0.1785    0.8070    0.0000 H   0  0  0  0  0  0  0  0  0  0  0  0
    0.5108   -1.0753    0.0000 H   0  0  0  0  0  0  0  0  0  0  0  0
   -1.1392    0.3537    0.0000 H   0  0  0  0  0  0  0  0  0  0  0  0
   -1.8537   -0.6628    0.0000 H   0  0  0  0  0  0  0  0  0  0  0  0
   -1.5517   -1.7897    0.0000 H   0  0  0  0  0  0  0  0  0  0  0  0
   -0.4247   -1.4878    0.0000 H   0  0  0  0  0  0  0  0  0  0  0  0
  1  2  1  0  0  0  0
  2  3  1  0  0  0  0
  3  4  2  0  0  0  0
  4  5  1  4  0  0  0
  1  6  1  0  0  0  0
  1  7  1  0  0  0  0
  1  8  1  0  0  0  0
  2  9  1  0  0  0  0
  2 10  1  0  0  0  0
  3 11  1  0  0  0  0
  4 12  1  0  0  0  0
  5 13  1  0  0  0  0
  5 14  1  0  0  0  0
  5 15  1  0  0  0  0
M  END
> <id>
305482

> <casrn>
68956-55-8

> <smiles (First)>
CC\C=C\C

> <Molecular weight>
70.13290405273438

> <name>
Hydrocarbons, C5-unsatd.

> <Outcome>
0

> <Molecule (RDKit Mol) (InChI Code)>
InChI=1S/C5H10/c1-3-5-4-2/h3,5H,4H2,1-2H3

> <reference>
ToxValDB

> <molecule_form>
not specified

$$$$

  Mrv1812 01171911372D          

  8  7  0  0  0  0            999 V2000
   -0.0930    1.0340    0.0000 Cl  0  0  0  0  0  0  0  0  0  0  0  0
    0.3195    0.3195    0.0000 C   0  0  0  0  0  0  0  0  0  0  0  0
    1.1445    0.3195    0.0000 Cl  0  0  0  0  0  0  0  0  0  0  0  0
   -0.0930   -0.3950    0.0000 C   0  0  0  0  0  0  0  0  0  0  0  0
    0.3195   -1.1094    0.0000 Cl  0  0  0  0  0  0  0  0  0  0  0  0
   -0.9180   -0.3950    0.0000 Cl  0  0  0  0  0  0  0  0  0  0  0  0
    0.7320    1.0340    0.0000 H   0  0  0  0  0  0  0  0  0  0  0  0
    0.7320   -0.3950    0.0000 H   0  0  0  0  0  0  0  0  0  0  0  0
  1  2  1  0  0  0  0
  2  3  1  0  0  0  0
  2  4  1  0  0  0  0
  4  5  1  0  0  0  0
  4  6  1  0  0  0  0
  2  7  1  0  0  0  0
  4  8  1  0  0  0  0
M  END
> <id>
798608

> <casrn>
79-34-5

> <smiles (First)>
ClC(Cl)C(Cl)Cl

> <Molecular weight>
167.84927368164062

> <name>
1,1,2,2-Tetrachloroethane

> <Outcome>
1

> <Molecule (RDKit Mol) (InChI Code)>
InChI=1S/C2H2Cl4/c3-1(4)2(5)6/h1-2H

> <reference>
ToxValDB

> <molecule_form>
not specified

$$$$

  Mrv1812 01171911372D          

 14 15  0  0  0  0            999 V2000
   -1.6316   -0.3524    0.0000 N   0  0  0  0  0  0  0  0  0  0  0  0
   -1.1467    0.3150    0.0000 N   0  0  0  0  0  0  0  0  0  0  0  0
   -0.3621    0.0601    0.0000 C   0  0  0  0  0  0  0  0  0  0  0  0
    0.3524    0.4726    0.0000 C   0  0  0  0  0  0  0  0  0  0  0  0
    1.0669    0.0601    0.0000 C   0  0  0  0  0  0  0  0  0  0  0  0
    1.0669   -0.7649    0.0000 C   0  0  0  0  0  0  0  0  0  0  0  0
    0.3524   -1.1774    0.0000 C   0  0  0  0  0  0  0  0  0  0  0  0
   -0.3621   -0.7649    0.0000 C   0  0  0  0  0  0  0  0  0  0  0  0
   -1.1467   -1.0198    0.0000 N   0  0  0  0  0  0  0  0  0  0  0  0
   -2.4566   -0.3524    0.0000 H   0  0  0  0  0  0  0  0  0  0  0  0
    0.3524    1.2976    0.0000 H   0  0  0  0  0  0  0  0  0  0  0  0
    1.7813    0.4726    0.0000 H   0  0  0  0  0  0  0  0  0  0  0  0
    1.7813   -1.1774    0.0000 H   0  0  0  0  0  0  0  0  0  0  0  0
    0.3524   -2.0024    0.0000 H   0  0  0  0  0  0  0  0  0  0  0  0
  2  1  4  0  0  0  0
  3  2  4  0  0  0  0
  3  4  4  0  0  0  0
  4  5  4  0  0  0  0
  5  6  4  0  0  0  0
  6  7  4  0  0  0  0
  7  8  4  0  0  0  0
  9  8  4  0  0  0  0
  1  9  4  0  0  0  0
  8  3  4  0  0  0  0
  1 10  1  0  0  0  0
  4 11  1  0  0  0  0
  5 12  1  0  0  0  0
  6 13  1  0  0  0  0
  7 14  1  0  0  0  0
M  END
> <id>
802517

> <casrn>
95-14-7

> <smiles (First)>
[nH]1nc2ccccc2n1

> <Molecular weight>
119.1240005493164

> <name>
1,2,3-Benzotriazole

> <Outcome>
1

> <Molecule (RDKit Mol) (InChI Code)>
InChI=1S/C6H5N3/c1-2-4-6-5(3-1)7-9-8-6/h1-4H,(H,7,8,9)

> <reference>
ToxValDB

> <molecule_form>
not specified

$$$$

  Mrv1812 01171911372D          

  7  6  0  0  0  0            999 V2000
    1.3557   -0.1372    0.0000 Cl  0  0  0  0  0  0  0  0  0  0  0  0
    0.5307   -0.1372    0.0000 C   0  0  0  0  0  0  0  0  0  0  0  0
    0.1182    0.5773    0.0000 C   0  0  0  0  0  0  0  0  0  0  0  0
   -0.7068    0.5773    0.0000 O   0  0  0  0  0  0  0  0  0  0  0  0
   -0.1586   -0.5905    0.0000 H   0  0  0  0  0  0  0  0  0  0  0  0
    0.4827   -0.9608    0.0000 H   0  0  0  0  0  0  0  0  0  0  0  0
    0.5307    1.2918    0.0000 H   0  0  0  0  0  0  0  0  0  0  0  0
  1  2  1  0  0  0  0
  2  3  1  0  0  0  0
  3  4  2  0  0  0  0
  2  5  1  0  0  0  0
  2  6  1  0  0  0  0
  3  7  1  0  0  0  0
M  END
> <id>
912383

> <casrn>
107-20-0

> <smiles (First)>
ClCC=O

> <Molecular weight>
78.49761962890625

> <name>
Chloroacetaldehyde

> <Outcome>
1

> <Molecule (RDKit Mol) (InChI Code)>
InChI=1S/C2H3ClO/c3-1-2-4/h2H,1H2

> <reference>
ToxValDB

> <molecule_form>
not specified

$$$$

  Mrv1812 01171911372D          

 14 14  0  0  0  0            999 V2000
    1.4684    0.6777    0.0000 N   0  0  0  0  0  0  0  0  0  0  0  0
    0.7540    0.2652    0.0000 C   0  0  0  0  0  0  0  0  0  0  0  0
    0.0395    0.6777    0.0000 C   0  0  0  0  0  0  0  0  0  0  0  0
   -0.6750    0.2652    0.0000 C   0  0  0  0  0  0  0  0  0  0  0  0
   -0.6750   -0.5598    0.0000 C   0  0  0  0  0  0  0  0  0  0  0  0
   -1.3895   -0.9723    0.0000 Cl  0  0  0  0  0  0  0  0  0  0  0  0
    0.0395   -0.9723    0.0000 C   0  0  0  0  0  0  0  0  0  0  0  0
    0.7540   -0.5598    0.0000 C   0  0  0  0  0  0  0  0  0  0  0  0
    2.1829    0.2652    0.0000 H   0  0  0  0  0  0  0  0  0  0  0  0
    1.4684    1.5027    0.0000 H   0  0  0  0  0  0  0  0  0  0  0  0
    0.0395    1.5027    0.0000 H   0  0  0  0  0  0  0  0  0  0  0  0
   -1.3895    0.6777    0.0000 H   0  0  0  0  0  0  0  0  0  0  0  0
    0.0395   -1.7973    0.0000 H   0  0  0  0  0  0  0  0  0  0  0  0
    1.4684   -0.9723    0.0000 H   0  0  0  0  0  0  0  0  0  0  0  0
  1  2  1  0  0  0  0
  3  2  4  0  0  0  0
  4  3  4  0  0  0  0
  5  4  4  0  0  0  0
  5  6  1  0  0  0  0
  7  5  4  0  0  0  0
  8  7  4  0  0  0  0
  2  8  4  0  0  0  0
  1  9  1  0  0  0  0
  1 10  1  0  0  0  0
  3 11  1  0  0  0  0
  4 12  1  0  0  0  0
  7 13  1  0  0  0  0
  8 14  1  0  0  0  0
M  END
> <id>
201219

> <casrn>
106-47-8

> <smiles (First)>
Nc1ccc(Cl)cc1

> <Molecular weight>
127.57154083251953

> <name>
4-Chloroaniline

> <Outcome>
1

> <Molecule (RDKit Mol) (InChI Code)>
InChI=1S/C6H6ClN/c7-5-1-3-6(8)4-2-5/h1-4H,8H2

> <reference>
ToxValDB

> <molecule_form>
not specified

$$$$

  Mrv1812 01171911372D          

 17 16  0  0  0  0            999 V2000
    1.1071    1.2421    0.0000 C   0  0  0  0  0  0  0  0  0  0  0  0
    1.5196    0.5276    0.0000 C   0  0  0  0  0  0  0  0  0  0  0  0
    1.1071   -0.1869    0.0000 C   0  0  0  0  0  0  0  0  0  0  0  0
    1.5196   -0.9014    0.0000 C   0  0  0  0  0  0  0  0  0  0  0  0
    0.2821   -0.1869    0.0000 C   0  0  0  0  0  0  0  0  0  0  0  0
    1.8216    1.6546    0.0000 H   0  0  0  0  0  0  0  0  0  0  0  0
    0.6946    1.9565    0.0000 H   0  0  0  0  0  0  0  0  0  0  0  0
    0.3927    0.8296    0.0000 H   0  0  0  0  0  0  0  0  0  0  0  0
    2.2569    0.1573    0.0000 H   0  0  0  0  0  0  0  0  0  0  0  0
    2.2569    0.8978    0.0000 H   0  0  0  0  0  0  0  0  0  0  0  0
    1.9321   -0.1869    0.0000 H   0  0  0  0  0  0  0  0  0  0  0  0
    0.7227   -1.1149    0.0000 H   0  0  0  0  0  0  0  0  0  0  0  0
    1.5196   -1.7264    0.0000 H   0  0  0  0  0  0  0  0  0  0  0  0
    2.3165   -1.1149    0.0000 H   0  0  0  0  0  0  0  0  0  0  0  0
    0.2821    0.6381    0.0000 H   0  0  0  0  0  0  0  0  0  0  0  0
   -0.5429   -0.1869    0.0000 H   0  0  0  0  0  0  0  0  0  0  0  0
    0.2821   -1.0119    0.0000 H   0  0  0  0  0  0  0  0  0  0  0  0
  1  2  1  0  0  0  0
  2  3  1  0  0  0  0
  3  4  1  0  0  0  0
  3  5  1  0  0  0  0
  1  6  1  0  0  0  0
  1  7  1  0  0  0  0
  1  8  1  0  0  0  0
  2  9  1  0  0  0  0
  2 10  1  0  0  0  0
  3 11  1  0  0  0  0
  4 12  1  0  0  0  0
  4 13  1  0  0  0  0
  4 14  1  0  0  0  0
  5 15  1  0  0  0  0
  5 16  1  0  0  0  0
  5 17  1  0  0  0  0
M  END
> <id>
326371

> <casrn>
78-78-4

> <smiles (First)>
CCC(C)C

> <Molecular weight>
72.1487808227539

> <name>
2-Methylbutane

> <Outcome>
0

> <Molecule (RDKit Mol) (InChI Code)>
InChI=1S/C5H12/c1-4-5(2)3/h5H,4H2,1-3H3

> <reference>
ToxValDB

> <molecule_form>
not specified

$$$$

  Mrv1812 01171911372D          

 13 13  0  0  0  0            999 V2000
    1.4227    0.7383    0.0000 O   0  0  0  0  0  0  0  0  0  0  0  0
    0.7083    0.3258    0.0000 C   0  0  0  0  0  0  0  0  0  0  0  0
   -0.0062    0.7383    0.0000 C   0  0  0  0  0  0  0  0  0  0  0  0
   -0.7207    0.3258    0.0000 C   0  0  0  0  0  0  0  0  0  0  0  0
   -1.4352    0.7383    0.0000 Cl  0  0  0  0  0  0  0  0  0  0  0  0
   -0.7207   -0.4992    0.0000 C   0  0  0  0  0  0  0  0  0  0  0  0
   -0.0062   -0.9117    0.0000 C   0  0  0  0  0  0  0  0  0  0  0  0
    0.7083   -0.4992    0.0000 C   0  0  0  0  0  0  0  0  0  0  0  0
    1.4227   -0.9117    0.0000 Cl  0  0  0  0  0  0  0  0  0  0  0  0
    2.1372    0.3258    0.0000 H   0  0  0  0  0  0  0  0  0  0  0  0
   -0.0062    1.5633    0.0000 H   0  0  0  0  0  0  0  0  0  0  0  0
   -1.4352   -0.9117    0.0000 H   0  0  0  0  0  0  0  0  0  0  0  0
   -0.0062   -1.7367    0.0000 H   0  0  0  0  0  0  0  0  0  0  0  0
  1  2  1  0  0  0  0
  3  2  4  0  0  0  0
  4  3  4  0  0  0  0
  4  5  1  0  0  0  0
  6  4  4  0  0  0  0
  7  6  4  0  0  0  0
  8  7  4  0  0  0  0
  8  9  1  0  0  0  0
  2  8  4  0  0  0  0
  1 10  1  0  0  0  0
  3 11  1  0  0  0  0
  6 12  1  0  0  0  0
  7 13  1  0  0  0  0
M  END
> <id>
802272

> <casrn>
583-78-8

> <smiles (First)>
Oc1cc(Cl)ccc1Cl

> <Molecular weight>
163.00135803222656

> <name>
2,5-Dichlorophenol

> <Outcome>
0

> <Molecule (RDKit Mol) (InChI Code)>
InChI=1S/C6H4Cl2O/c7-4-1-2-5(8)6(9)3-4/h1-3,9H

> <reference>
ToxValDB

> <molecule_form>
not specified

$$$$

  Mrv1812 01171911372D          

 13 13  0  0  0  0            999 V2000
    1.2631   -1.0721    0.0000 C   0  0  0  0  0  0  0  0  0  0  0  0
    1.2631   -0.2471    0.0000 C   0  0  0  0  0  0  0  0  0  0  0  0
    0.5486    0.1654    0.0000 C   0  0  0  0  0  0  0  0  0  0  0  0
    0.1361    0.8799    0.0000 C   0  0  0  0  0  0  0  0  0  0  0  0
   -0.2764    0.1654    0.0000 O   0  0  0  0  0  0  0  0  0  0  0  0
    0.4381   -1.0721    0.0000 H   0  0  0  0  0  0  0  0  0  0  0  0
    1.2631   -1.8971    0.0000 H   0  0  0  0  0  0  0  0  0  0  0  0
    2.0881   -1.0721    0.0000 H   0  0  0  0  0  0  0  0  0  0  0  0
    2.0867   -0.1991    0.0000 H   0  0  0  0  0  0  0  0  0  0  0  0
    1.7165    0.4422    0.0000 H   0  0  0  0  0  0  0  0  0  0  0  0
    1.1320    0.7487    0.0000 H   0  0  0  0  0  0  0  0  0  0  0  0
    0.5895    1.5691    0.0000 H   0  0  0  0  0  0  0  0  0  0  0  0
   -0.3172    1.5691    0.0000 H   0  0  0  0  0  0  0  0  0  0  0  0
  1  2  1  0  0  0  0
  2  3  1  0  0  0  0
  4  3  1  0  0  0  0
  5  4  1  0  0  0  0
  3  5  1  0  0  0  0
  1  6  1  0  0  0  0
  1  7  1  0  0  0  0
  1  8  1  0  0  0  0
  2  9  1  0  0  0  0
  2 10  1  0  0  0  0
  3 11  1  0  0  0  0
  4 12  1  0  0  0  0
  4 13  1  0  0  0  0
M  END
> <id>
201748

> <casrn>
106-88-7

> <smiles (First)>
CCC1CO1

> <Molecular weight>
72.10572052001953

> <name>
1,2-Epoxybutane

> <Outcome>
0

> <Molecule (RDKit Mol) (InChI Code)>
InChI=1S/C4H8O/c1-2-4-3-5-4/h4H,2-3H2,1H3

> <reference>
ToxValDB

> <molecule_form>
not specified

$$$$

  Mrv1812 01171911372D          

 20 19  0  0  0  0            999 V2000
   -2.0362    1.2994    0.0000 C   0  0  0  0  0  0  0  0  0  0  0  0
   -1.3218    1.7119    0.0000 C   0  0  0  0  0  0  0  0  0  0  0  0
   -1.3218    2.5369    0.0000 C   0  0  0  0  0  0  0  0  0  0  0  0
   -0.6073    1.2994    0.0000 C   0  0  0  0  0  0  0  0  0  0  0  0
   -0.6073    0.4744    0.0000 O   0  0  0  0  0  0  0  0  0  0  0  0
    0.1072    1.7119    0.0000 O   0  0  0  0  0  0  0  0  0  0  0  0
    0.8216    1.2994    0.0000 C   0  0  0  0  0  0  0  0  0  0  0  0
    1.5361    1.7119    0.0000 C   0  0  0  0  0  0  0  0  0  0  0  0
    2.2506    1.2994    0.0000 N   0  0  0  0  0  0  0  0  0  0  0  0
    2.9651    1.7119    0.0000 C   0  0  0  0  0  0  0  0  0  0  0  0
    3.6795    2.1244    0.0000 O   0  0  0  0  0  0  0  0  0  0  0  0
   -2.4487    2.0139    0.0000 H   0  0  0  0  0  0  0  0  0  0  0  0
   -2.7507    0.8869    0.0000 H   0  0  0  0  0  0  0  0  0  0  0  0
   -1.6237    0.5849    0.0000 H   0  0  0  0  0  0  0  0  0  0  0  0
   -0.6073    2.9494    0.0000 H   0  0  0  0  0  0  0  0  0  0  0  0
   -2.0362    2.9494    0.0000 H   0  0  0  0  0  0  0  0  0  0  0  0
    0.4514    0.5622    0.0000 H   0  0  0  0  0  0  0  0  0  0  0  0
    1.1919    0.5622    0.0000 H   0  0  0  0  0  0  0  0  0  0  0  0
    1.9064    2.4491    0.0000 H   0  0  0  0  0  0  0  0  0  0  0  0
    1.1658    2.4491    0.0000 H   0  0  0  0  0  0  0  0  0  0  0  0
  1  2  1  0  0  0  0
  2  3  2  0  0  0  0
  2  4  1  0  0  0  0
  4  5  2  0  0  0  0
  4  6  1  0  0  0  0
  6  7  1  0  0  0  0
  7  8  1  0  0  0  0
  8  9  1  0  0  0  0
  9 10  2  0  0  0  0
 10 11  2  0  0  0  0
  1 12  1  0  0  0  0
  1 13  1  0  0  0  0
  1 14  1  0  0  0  0
  3 15  1  0  0  0  0
  3 16  1  0  0  0  0
  7 17  1  0  0  0  0
  7 18  1  0  0  0  0
  8 19  1  0  0  0  0
  8 20  1  0  0  0  0
M  END
> <id>
256719; 904107; 904108; 904113; 904115

> <casrn>
30674-80-7

> <smiles (First)>
CC(=C)C(=O)OCCN=C=O

> <Molecular weight>
155.15126037597656

> <name>
2-Isocyanatoethyl methacrylate

> <Outcome>
1

> <Molecule (RDKit Mol) (InChI Code)>
InChI=1S/C7H9NO3/c1-6(2)7(10)11-4-3-8-5-9/h1,3-4H2,2H3

> <reference>
ToxValDB

> <molecule_form>
not specified

$$$$

  Mrv1812 01171911372D          

 12 12  0  0  0  0            999 V2000
    1.4289    0.8250    0.0000 Cl  0  0  0  0  0  0  0  0  0  0  0  0
    0.7145    0.4125    0.0000 C   0  0  0  0  0  0  0  0  0  0  0  0
   -0.0000    0.8250    0.0000 C   0  0  0  0  0  0  0  0  0  0  0  0
   -0.7145    0.4125    0.0000 C   0  0  0  0  0  0  0  0  0  0  0  0
   -0.7145   -0.4125    0.0000 C   0  0  0  0  0  0  0  0  0  0  0  0
   -0.0000   -0.8250    0.0000 C   0  0  0  0  0  0  0  0  0  0  0  0
    0.7145   -0.4125    0.0000 C   0  0  0  0  0  0  0  0  0  0  0  0
    1.4289   -0.8250    0.0000 Cl  0  0  0  0  0  0  0  0  0  0  0  0
   -0.0000    1.6500    0.0000 H   0  0  0  0  0  0  0  0  0  0  0  0
   -1.4290    0.8250    0.0000 H   0  0  0  0  0  0  0  0  0  0  0  0
   -1.4290   -0.8250    0.0000 H   0  0  0  0  0  0  0  0  0  0  0  0
   -0.0000   -1.6500    0.0000 H   0  0  0  0  0  0  0  0  0  0  0  0
  1  2  1  0  0  0  0
  3  2  4  0  0  0  0
  4  3  4  0  0  0  0
  5  4  4  0  0  0  0
  6  5  4  0  0  0  0
  7  6  4  0  0  0  0
  7  8  1  0  0  0  0
  2  7  4  0  0  0  0
  3  9  1  0  0  0  0
  4 10  1  0  0  0  0
  5 11  1  0  0  0  0
  6 12  1  0  0  0  0
M  END
> <id>
798529

> <casrn>
95-50-1

> <smiles (First)>
Clc1ccccc1Cl

> <Molecular weight>
147.001953125

> <name>
1,2-Dichlorobenzene

> <Outcome>
1

> <Molecule (RDKit Mol) (InChI Code)>
InChI=1S/C6H4Cl2/c7-5-3-1-2-4-6(5)8/h1-4H

> <reference>
ToxValDB

> <molecule_form>
not specified

$$$$

  Mrv1812 01171911372D          

 15 15  0  0  0  0            999 V2000
    0.6674    0.2169    0.0000 C   0  0  0  0  0  0  0  0  0  0  0  0
   -0.0000    0.7018    0.0000 C   0  0  0  0  0  0  0  0  0  0  0  0
   -0.6674    0.2169    0.0000 C   0  0  0  0  0  0  0  0  0  0  0  0
   -0.4125   -0.5677    0.0000 C   0  0  0  0  0  0  0  0  0  0  0  0
    0.4125   -0.5677    0.0000 C   0  0  0  0  0  0  0  0  0  0  0  0
    1.4799    0.0736    0.0000 H   0  0  0  0  0  0  0  0  0  0  0  0
    1.2405    0.8103    0.0000 H   0  0  0  0  0  0  0  0  0  0  0  0
    0.3873    1.4302    0.0000 H   0  0  0  0  0  0  0  0  0  0  0  0
   -0.3873    1.4302    0.0000 H   0  0  0  0  0  0  0  0  0  0  0  0
   -1.2405    0.8103    0.0000 H   0  0  0  0  0  0  0  0  0  0  0  0
   -1.4799    0.0736    0.0000 H   0  0  0  0  0  0  0  0  0  0  0  0
   -1.1540   -0.9294    0.0000 H   0  0  0  0  0  0  0  0  0  0  0  0
   -0.5273   -1.3847    0.0000 H   0  0  0  0  0  0  0  0  0  0  0  0
    0.5273   -1.3847    0.0000 H   0  0  0  0  0  0  0  0  0  0  0  0
    1.1540   -0.9294    0.0000 H   0  0  0  0  0  0  0  0  0  0  0  0
  2  1  1  0  0  0  0
  3  2  1  0  0  0  0
  4  3  1  0  0  0  0
  5  4  1  0  0  0  0
  1  5  1  0  0  0  0
  1  6  1  0  0  0  0
  1  7  1  0  0  0  0
  2  8  1  0  0  0  0
  2  9  1  0  0  0  0
  3 10  1  0  0  0  0
  3 11  1  0  0  0  0
  4 12  1  0  0  0  0
  4 13  1  0  0  0  0
  5 14  1  0  0  0  0
  5 15  1  0  0  0  0
M  END
> <id>
255300

> <casrn>
287-92-3

> <smiles (First)>
C1CCCC1

> <Molecular weight>
70.13290405273438

> <name>
Cyclopentane

> <Outcome>
0

> <Molecule (RDKit Mol) (InChI Code)>
InChI=1S/C5H10/c1-2-4-5-3-1/h1-5H2

> <reference>
ToxValDB

> <molecule_form>
not specified

$$$$

  Mrv1812 01171911372D          

 30 32  0  0  0  0            999 V2000
    2.6269    2.2998    0.0000 C   0  0  0  0  0  0  0  0  0  0  0  0
    1.9124    1.8873    0.0000 C   0  0  0  0  0  0  0  0  0  0  0  0
    1.9124    1.0623    0.0000 O   0  0  0  0  0  0  0  0  0  0  0  0
    1.1979    2.2998    0.0000 O   0  0  0  0  0  0  0  0  0  0  0  0
    0.4834    1.8873    0.0000 C   0  0  0  0  0  0  0  0  0  0  0  0
    0.4834    1.0623    0.0000 C   0  0  0  0  0  0  0  0  0  0  0  0
   -0.2310    0.6498    0.0000 C   0  0  0  0  0  0  0  0  0  0  0  0
   -0.4373    1.4748    0.0000 C   0  0  0  0  0  0  0  0  0  0  0  0
   -0.2310    2.2998    0.0000 C   0  0  0  0  0  0  0  0  0  0  0  0
   -0.9455    1.8873    0.0000 C   0  0  0  0  0  0  0  0  0  0  0  0
   -1.7301    2.1422    0.0000 C   0  0  0  0  0  0  0  0  0  0  0  0
   -2.2150    1.4748    0.0000 C   0  0  0  0  0  0  0  0  0  0  0  0
   -1.7301    0.8073    0.0000 C   0  0  0  0  0  0  0  0  0  0  0  0
   -0.9455    1.0623    0.0000 C   0  0  0  0  0  0  0  0  0  0  0  0
    3.0394    1.5853    0.0000 H   0  0  0  0  0  0  0  0  0  0  0  0
    3.3413    2.7123    0.0000 H   0  0  0  0  0  0  0  0  0  0  0  0
    2.2144    3.0143    0.0000 H   0  0  0  0  0  0  0  0  0  0  0  0
    1.1979    1.4748    0.0000 H   0  0  0  0  0  0  0  0  0  0  0  0
    0.6267    0.2498    0.0000 H   0  0  0  0  0  0  0  0  0  0  0  0
    1.1154    0.5320    0.0000 H   0  0  0  0  0  0  0  0  0  0  0  0
   -0.6120   -0.0820    0.0000 H   0  0  0  0  0  0  0  0  0  0  0  0
    0.3085    1.1219    0.0000 H   0  0  0  0  0  0  0  0  0  0  0  0
    0.3085    1.8276    0.0000 H   0  0  0  0  0  0  0  0  0  0  0  0
   -0.2310    3.1248    0.0000 H   0  0  0  0  0  0  0  0  0  0  0  0
   -1.0317    2.7078    0.0000 H   0  0  0  0  0  0  0  0  0  0  0  0
   -2.0766    2.8909    0.0000 H   0  0  0  0  0  0  0  0  0  0  0  0
   -2.4959    2.4490    0.0000 H   0  0  0  0  0  0  0  0  0  0  0  0
   -3.0400    1.4748    0.0000 H   0  0  0  0  0  0  0  0  0  0  0  0
   -1.9851    0.0227    0.0000 H   0  0  0  0  0  0  0  0  0  0  0  0
   -1.0317    0.2418    0.0000 H   0  0  0  0  0  0  0  0  0  0  0  0
  1  2  1  0  0  0  0
  2  3  2  0  0  0  0
  2  4  1  0  0  0  0
  4  5  1  0  0  0  0
  6  5  1  0  0  0  0
  7  6  1  0  0  0  0
  7  8  1  0  0  0  0
  8  9  1  0  0  0  0
  9 10  1  0  0  0  0
 11 10  1  0  0  0  0
 12 11  1  0  0  0  0
 13 12  2  0  0  0  0
 14 13  1  0  0  0  0
  5  9  1  0  0  0  0
 14  7  1  0  0  0  0
 10 14  1  0  0  0  0
  1 15  1  0  0  0  0
  1 16  1  0  0  0  0
  1 17  1  0  0  0  0
  5 18  1  0  0  0  0
  6 19  1  0  0  0  0
  6 20  1  0  0  0  0
  7 21  1  0  0  0  0
  8 22  1  0  0  0  0
  8 23  1  0  0  0  0
  9 24  1  0  0  0  0
 10 25  1  0  0  0  0
 11 26  1  0  0  0  0
 11 27  1  0  0  0  0
 12 28  1  0  0  0  0
 13 29  1  0  0  0  0
 14 30  1  0  0  0  0
M  END
> <id>
267893

> <casrn>
5413-60-5

> <smiles (First)>
CC(=O)OC1CC2CC1C3CC=CC23

> <Molecular weight>
192.25424194335938

> <name>
3a,4,5,6,7,7a-Hexahydro-1H-4,7-methanoinden-6-yl acetate

> <Outcome>
0

> <Molecule (RDKit Mol) (InChI Code)>
InChI=1S/C12H16O2/c1-7(13)14-12-6-8-5-11(12)10-4-2-3-9(8)10/h2-3,8-12H,4-6H2,1H3

> <reference>
ToxValDB

> <molecule_form>
not specified

$$$$

  Mrv1812 01171911372D          

 11 10  0  0  0  0            999 V2000
    1.2700    1.2668    0.0000 C   0  0  0  0  0  0  0  0  0  0  0  0
    0.8575    0.5523    0.0000 C   0  0  0  0  0  0  0  0  0  0  0  0
    1.2700   -0.1622    0.0000 O   0  0  0  0  0  0  0  0  0  0  0  0
    0.8575   -0.8766    0.0000 C   0  0  0  0  0  0  0  0  0  0  0  0
    1.2700   -1.5911    0.0000 Cl  0  0  0  0  0  0  0  0  0  0  0  0
    0.0325   -0.8766    0.0000 O   0  0  0  0  0  0  0  0  0  0  0  0
    1.9845    0.8543    0.0000 H   0  0  0  0  0  0  0  0  0  0  0  0
    1.6825    1.9813    0.0000 H   0  0  0  0  0  0  0  0  0  0  0  0
    0.5555    1.6793    0.0000 H   0  0  0  0  0  0  0  0  0  0  0  0
    0.1203    0.9226    0.0000 H   0  0  0  0  0  0  0  0  0  0  0  0
    0.1203    0.1821    0.0000 H   0  0  0  0  0  0  0  0  0  0  0  0
  1  2  1  0  0  0  0
  2  3  1  0  0  0  0
  3  4  1  0  0  0  0
  4  5  1  0  0  0  0
  4  6  2  0  0  0  0
  1  7  1  0  0  0  0
  1  8  1  0  0  0  0
  1  9  1  0  0  0  0
  2 10  1  0  0  0  0
  2 11  1  0  0  0  0
M  END
> <id>
267952; 906163; 906176

> <casrn>
541-41-3

> <smiles (First)>
CCOC(Cl)=O

> <Molecular weight>
108.52359771728516

> <name>
Ethyl chloroformate

> <Outcome>
1

> <Molecule (RDKit Mol) (InChI Code)>
InChI=1S/C3H5ClO2/c1-2-6-3(4)5/h2H2,1H3

> <reference>
ToxValDB

> <molecule_form>
not specified

$$$$

  Mrv1812 01171911372D          

 29 29  0  0  0  0            999 V2000
    1.0085    1.1615    0.0000 C   0  0  0  0  0  0  0  0  0  0  0  0
    1.7230    0.7490    0.0000 C   0  0  0  0  0  0  0  0  0  0  0  0
    2.4375    1.1615    0.0000 C   0  0  0  0  0  0  0  0  0  0  0  0
    1.7230   -0.0760    0.0000 N   0  0  0  0  0  0  0  0  0  0  0  0
    2.4375   -0.4885    0.0000 C   0  0  0  0  0  0  0  0  0  0  0  0
    2.4375   -1.3135    0.0000 O   0  0  0  0  0  0  0  0  0  0  0  0
    3.1520   -0.0760    0.0000 C   0  0  0  0  0  0  0  0  0  0  0  0
    3.8664   -0.4885    0.0000 O   0  0  0  0  0  0  0  0  0  0  0  0
    1.0085   -0.4885    0.0000 C   0  0  0  0  0  0  0  0  0  0  0  0
    0.2941   -0.0760    0.0000 C   0  0  0  0  0  0  0  0  0  0  0  0
   -0.4204   -0.4885    0.0000 C   0  0  0  0  0  0  0  0  0  0  0  0
   -0.4204   -1.3135    0.0000 C   0  0  0  0  0  0  0  0  0  0  0  0
   -1.1349   -1.7260    0.0000 F   0  0  0  0  0  0  0  0  0  0  0  0
    0.2941   -1.7260    0.0000 C   0  0  0  0  0  0  0  0  0  0  0  0
    1.0085   -1.3135    0.0000 C   0  0  0  0  0  0  0  0  0  0  0  0
    1.4210    1.8760    0.0000 H   0  0  0  0  0  0  0  0  0  0  0  0
    0.2941    1.5740    0.0000 H   0  0  0  0  0  0  0  0  0  0  0  0
    0.5960    0.4471    0.0000 H   0  0  0  0  0  0  0  0  0  0  0  0
    1.7230    1.5740    0.0000 H   0  0  0  0  0  0  0  0  0  0  0  0
    2.6510    0.3647    0.0000 H   0  0  0  0  0  0  0  0  0  0  0  0
    3.2625    1.1615    0.0000 H   0  0  0  0  0  0  0  0  0  0  0  0
    2.6510    1.9584    0.0000 H   0  0  0  0  0  0  0  0  0  0  0  0
    3.6330    0.5943    0.0000 H   0  0  0  0  0  0  0  0  0  0  0  0
    3.1520   -0.9010    0.0000 H   0  0  0  0  0  0  0  0  0  0  0  0
    4.6914   -0.4885    0.0000 H   0  0  0  0  0  0  0  0  0  0  0  0
   -0.2893    0.5074    0.0000 H   0  0  0  0  0  0  0  0  0  0  0  0
   -1.1349   -0.0760    0.0000 H   0  0  0  0  0  0  0  0  0  0  0  0
    0.2941   -2.5510    0.0000 H   0  0  0  0  0  0  0  0  0  0  0  0
    1.7230   -1.7260    0.0000 H   0  0  0  0  0  0  0  0  0  0  0  0
  1  2  1  0  0  0  0
  2  3  1  0  0  0  0
  2  4  1  0  0  0  0
  4  5  1  0  0  0  0
  5  6  2  0  0  0  0
  5  7  1  0  0  0  0
  7  8  1  0  0  0  0
  4  9  1  0  0  0  0
 10  9  4  0  0  0  0
 11 10  4  0  0  0  0
 12 11  4  0  0  0  0
 12 13  1  0  0  0  0
 14 12  4  0  0  0  0
 15 14  4  0  0  0  0
  9 15  4  0  0  0  0
  1 16  1  0  0  0  0
  1 17  1  0  0  0  0
  1 18  1  0  0  0  0
  2 19  1  0  0  0  0
  3 20  1  0  0  0  0
  3 21  1  0  0  0  0
  3 22  1  0  0  0  0
  7 23  1  0  0  0  0
  7 24  1  0  0  0  0
  8 25  1  0  0  0  0
 10 26  1  0  0  0  0
 11 27  1  0  0  0  0
 14 28  1  0  0  0  0
 15 29  1  0  0  0  0
M  END
> <id>
924337

> <casrn>
54041-17-7

> <smiles (First)>
CC(C)N(C(=O)CO)c1ccc(F)cc1

> <Molecular weight>
211.23277282714844

> <name>
Acetamide, N-(4-fluorophenyl)-2-hydroxy-N-(1-methylethyl)-

> <Outcome>
1

> <Molecule (RDKit Mol) (InChI Code)>
InChI=1S/C11H14FNO2/c1-8(2)13(11(15)7-14)10-5-3-9(12)4-6-10/h3-6,8,14H,7H2,1-2H3

> <reference>
ToxValDB

> <molecule_form>
not specified

$$$$

  Mrv1812 01171911372D          

 19 19  0  0  0  0            999 V2000
    1.3611    1.0782    0.0000 C   0  0  0  0  0  0  0  0  0  0  0  0
    0.6466    0.6657    0.0000 C   0  0  0  0  0  0  0  0  0  0  0  0
   -0.0678    1.0782    0.0000 C   0  0  0  0  0  0  0  0  0  0  0  0
   -0.7823    0.6657    0.0000 C   0  0  0  0  0  0  0  0  0  0  0  0
   -0.7823   -0.1593    0.0000 C   0  0  0  0  0  0  0  0  0  0  0  0
   -0.0678   -0.5718    0.0000 C   0  0  0  0  0  0  0  0  0  0  0  0
    0.6466   -0.1593    0.0000 C   0  0  0  0  0  0  0  0  0  0  0  0
    1.3611   -0.5718    0.0000 N   0  0  0  0  0  0  0  0  0  0  0  0
    2.0756   -0.1593    0.0000 O   0  0  0  0  0  0  0  0  0  0  0  0
    1.3611   -1.3968    0.0000 O   0  0  0  0  0  0  0  0  0  0  0  0
   -1.4968   -0.5718    0.0000 N   0  0  0  0  0  0  0  0  0  0  0  0
   -1.4968   -1.3968    0.0000 O   0  0  0  0  0  0  0  0  0  0  0  0
   -2.2112   -0.1593    0.0000 O   0  0  0  0  0  0  0  0  0  0  0  0
    1.7736    0.3637    0.0000 H   0  0  0  0  0  0  0  0  0  0  0  0
    2.0756    1.4907    0.0000 H   0  0  0  0  0  0  0  0  0  0  0  0
    0.9486    1.7927    0.0000 H   0  0  0  0  0  0  0  0  0  0  0  0
   -0.0678    1.9032    0.0000 H   0  0  0  0  0  0  0  0  0  0  0  0
   -1.4968    1.0782    0.0000 H   0  0  0  0  0  0  0  0  0  0  0  0
   -0.0678   -1.3968    0.0000 H   0  0  0  0  0  0  0  0  0  0  0  0
  1  2  1  0  0  0  0
  3  2  4  0  0  0  0
  4  3  4  0  0  0  0
  5  4  4  0  0  0  0
  6  5  4  0  0  0  0
  7  6  4  0  0  0  0
  7  8  1  0  0  0  0
  8  9  2  0  0  0  0
  8 10  2  0  0  0  0
  5 11  1  0  0  0  0
 11 12  2  0  0  0  0
 11 13  2  0  0  0  0
  2  7  4  0  0  0  0
  1 14  1  0  0  0  0
  1 15  1  0  0  0  0
  1 16  1  0  0  0  0
  3 17  1  0  0  0  0
  4 18  1  0  0  0  0
  6 19  1  0  0  0  0
M  END
> <id>
250775

> <casrn>
25321-14-6

> <smiles (First)>
Cc1ccc(cc1[N+]([O-])=O)[N+]([O-])=O

> <Molecular weight>
182.133544921875

> <name>
Dinitrotoluene

> <Outcome>
1

> <Molecule (RDKit Mol) (InChI Code)>
InChI=1S/C7H6N2O4/c1-5-2-3-6(8(10)11)4-7(5)9(12)13/h2-4H,1H3

> <reference>
ToxValDB

> <molecule_form>
not specified

$$$$

  Mrv1812 01171911372D          

 19 19  0  0  0  0            999 V2000
    1.3627    0.4559    0.0000 C   0  0  0  0  0  0  0  0  0  0  0  0
    0.6482    0.0434    0.0000 C   0  0  0  0  0  0  0  0  0  0  0  0
   -0.0663    0.4559    0.0000 C   0  0  0  0  0  0  0  0  0  0  0  0
   -0.7807    0.0434    0.0000 C   0  0  0  0  0  0  0  0  0  0  0  0
   -0.7807   -0.7816    0.0000 C   0  0  0  0  0  0  0  0  0  0  0  0
   -0.0663   -1.1941    0.0000 C   0  0  0  0  0  0  0  0  0  0  0  0
    0.6482   -0.7816    0.0000 C   0  0  0  0  0  0  0  0  0  0  0  0
    1.3627   -1.1941    0.0000 N   0  0  0  0  0  0  0  0  0  0  0  0
    2.0772   -0.7816    0.0000 C   0  0  0  0  0  0  0  0  0  0  0  0
    2.7916   -0.3691    0.0000 O   0  0  0  0  0  0  0  0  0  0  0  0
   -0.0663    1.2809    0.0000 N   0  0  0  0  0  0  0  0  0  0  0  0
   -0.7807    1.6934    0.0000 C   0  0  0  0  0  0  0  0  0  0  0  0
   -1.4952    2.1059    0.0000 O   0  0  0  0  0  0  0  0  0  0  0  0
    1.7752   -0.2586    0.0000 H   0  0  0  0  0  0  0  0  0  0  0  0
    2.0772    0.8684    0.0000 H   0  0  0  0  0  0  0  0  0  0  0  0
    0.9502    1.1704    0.0000 H   0  0  0  0  0  0  0  0  0  0  0  0
   -1.4952    0.4559    0.0000 H   0  0  0  0  0  0  0  0  0  0  0  0
   -1.4952   -1.1941    0.0000 H   0  0  0  0  0  0  0  0  0  0  0  0
   -0.0663   -2.0191    0.0000 H   0  0  0  0  0  0  0  0  0  0  0  0
  1  2  1  0  0  0  0
  3  2  4  0  0  0  0
  4  3  4  0  0  0  0
  5  4  4  0  0  0  0
  6  5  4  0  0  0  0
  7  6  4  0  0  0  0
  7  8  1  0  0  0  0
  8  9  2  0  0  0  0
  9 10  2  0  0  0  0
  3 11  1  0  0  0  0
 11 12  2  0  0  0  0
 12 13  2  0  0  0  0
  2  7  4  0  0  0  0
  1 14  1  0  0  0  0
  1 15  1  0  0  0  0
  1 16  1  0  0  0  0
  4 17  1  0  0  0  0
  5 18  1  0  0  0  0
  6 19  1  0  0  0  0
M  END
> <id>
967644; 967645

> <casrn>
110839-12-8

> <smiles (First)>
Cc1c(cccc1N=C=O)N=C=O

> <Molecular weight>
174.15614318847656

> <name>
Reaction product Toluene 2,4- diisocyanate /Toluene-2,6-diisocynate in a ratio 80% to 20 %  in excess with Toluen-2,4-diamin /Toluidine-2,6-diamin in a ratio 80% to 20%  forming Biuret structures via  non-isolated polyurea intermediates

> <Outcome>
1

> <Molecule (RDKit Mol) (InChI Code)>
InChI=1S/C9H6N2O2/c1-7-8(10-5-12)3-2-4-9(7)11-6-13/h2-4H,1H3

> <reference>
ToxValDB

> <molecule_form>
not specified

$$$$

  Mrv1812 01171911372D          

 22 22  0  0  0  0            999 V2000
    1.5033    1.0791    0.0000 N   0  0  0  0  0  0  0  0  0  0  0  0
    0.7888    0.6666    0.0000 C   0  0  0  0  0  0  0  0  0  0  0  0
    0.0743    1.0791    0.0000 C   0  0  0  0  0  0  0  0  0  0  0  0
   -0.6402    0.6666    0.0000 C   0  0  0  0  0  0  0  0  0  0  0  0
   -0.6402   -0.1584    0.0000 C   0  0  0  0  0  0  0  0  0  0  0  0
    0.0743   -0.5709    0.0000 C   0  0  0  0  0  0  0  0  0  0  0  0
    0.7888   -0.1584    0.0000 C   0  0  0  0  0  0  0  0  0  0  0  0
    1.5033   -0.5709    0.0000 N   0  0  0  0  0  0  0  0  0  0  0  0
    2.2177    0.6666    0.0000 H   0  0  0  0  0  0  0  0  0  0  0  0
    1.5033    1.9041    0.0000 H   0  0  0  0  0  0  0  0  0  0  0  0
    0.7888    1.4916    0.0000 H   0  0  0  0  0  0  0  0  0  0  0  0
   -0.0690    1.8916    0.0000 H   0  0  0  0  0  0  0  0  0  0  0  0
   -0.5577    1.6094    0.0000 H   0  0  0  0  0  0  0  0  0  0  0  0
   -1.3993    0.9897    0.0000 H   0  0  0  0  0  0  0  0  0  0  0  0
   -1.4245    0.4109    0.0000 H   0  0  0  0  0  0  0  0  0  0  0  0
   -1.3046   -0.6474    0.0000 H   0  0  0  0  0  0  0  0  0  0  0  0
   -0.8162   -0.9644    0.0000 H   0  0  0  0  0  0  0  0  0  0  0  0
   -0.2959   -1.3082    0.0000 H   0  0  0  0  0  0  0  0  0  0  0  0
    0.4446   -1.3082    0.0000 H   0  0  0  0  0  0  0  0  0  0  0  0
    0.7888   -0.9834    0.0000 H   0  0  0  0  0  0  0  0  0  0  0  0
    2.1925   -1.0243    0.0000 H   0  0  0  0  0  0  0  0  0  0  0  0
    2.1925   -0.1176    0.0000 H   0  0  0  0  0  0  0  0  0  0  0  0
  1  2  1  0  0  0  0
  3  2  1  0  0  0  0
  4  3  1  0  0  0  0
  5  4  1  0  0  0  0
  6  5  1  0  0  0  0
  7  6  1  0  0  0  0
  7  8  1  0  0  0  0
  2  7  1  0  0  0  0
  1  9  1  0  0  0  0
  1 10  1  0  0  0  0
  2 11  1  0  0  0  0
  3 12  1  0  0  0  0
  3 13  1  0  0  0  0
  4 14  1  0  0  0  0
  4 15  1  0  0  0  0
  5 16  1  0  0  0  0
  5 17  1  0  0  0  0
  6 18  1  0  0  0  0
  6 19  1  0  0  0  0
  7 20  1  0  0  0  0
  8 21  1  0  0  0  0
  8 22  1  0  0  0  0
M  END
> <id>
307221

> <casrn>
694-83-7

> <smiles (First)>
[NH3+][C@H]1CCCC[C@H]1[NH3+]

> <Molecular weight>
116.20464324951172

> <name>
1,2-Cyclohexanediamine

> <Outcome>
1

> <Molecule (RDKit Mol) (InChI Code)>
InChI=1S/C6H14N2/c7-5-3-1-2-4-6(5)8/h5-6H,1-4,7-8H2

> <reference>
ToxValDB

> <molecule_form>
not specified

$$$$

  Mrv1812 01171911372D          

 18 17  0  0  0  0            999 V2000
    0.0000   -0.0020    0.0000 C   0  0  0  0  0  0  0  0  0  0  0  0
    0.7145    0.4105    0.0000 C   0  0  0  0  0  0  0  0  0  0  0  0
    1.4290   -0.0020    0.0000 O   0  0  0  0  0  0  0  0  0  0  0  0
    2.1434    0.4105    0.0000 C   0  0  0  0  0  0  0  0  0  0  0  0
    2.1434    1.2355    0.0000 O   0  0  0  0  0  0  0  0  0  0  0  0
    2.8579   -0.0020    0.0000 C   0  0  0  0  0  0  0  0  0  0  0  0
    3.5724    0.4105    0.0000 C   0  0  0  0  0  0  0  0  0  0  0  0
    2.8579   -0.8270    0.0000 C   0  0  0  0  0  0  0  0  0  0  0  0
   -0.4125    0.7125    0.0000 H   0  0  0  0  0  0  0  0  0  0  0  0
   -0.7145   -0.4145    0.0000 H   0  0  0  0  0  0  0  0  0  0  0  0
    0.4125   -0.7165    0.0000 H   0  0  0  0  0  0  0  0  0  0  0  0
    1.0847    1.1478    0.0000 H   0  0  0  0  0  0  0  0  0  0  0  0
    0.3442    1.1478    0.0000 H   0  0  0  0  0  0  0  0  0  0  0  0
    3.9849   -0.3040    0.0000 H   0  0  0  0  0  0  0  0  0  0  0  0
    4.2868    0.8230    0.0000 H   0  0  0  0  0  0  0  0  0  0  0  0
    3.1599    1.1250    0.0000 H   0  0  0  0  0  0  0  0  0  0  0  0
    2.1434   -1.2395    0.0000 H   0  0  0  0  0  0  0  0  0  0  0  0
    3.5724   -1.2395    0.0000 H   0  0  0  0  0  0  0  0  0  0  0  0
  1  2  1  0  0  0  0
  2  3  1  0  0  0  0
  3  4  1  0  0  0  0
  4  5  2  0  0  0  0
  4  6  1  0  0  0  0
  6  7  1  0  0  0  0
  6  8  2  0  0  0  0
  1  9  1  0  0  0  0
  1 10  1  0  0  0  0
  1 11  1  0  0  0  0
  2 12  1  0  0  0  0
  2 13  1  0  0  0  0
  7 14  1  0  0  0  0
  7 15  1  0  0  0  0
  7 16  1  0  0  0  0
  8 17  1  0  0  0  0
  8 18  1  0  0  0  0
M  END
> <id>
352720; 924323

> <casrn>
97-63-2

> <smiles (First)>
CCOC(=O)C(C)=C

> <Molecular weight>
114.14240264892578

> <name>
Ethyl methacrylate

> <Outcome>
0

> <Molecule (RDKit Mol) (InChI Code)>
InChI=1S/C6H10O2/c1-4-8-6(7)5(2)3/h2,4H2,1,3H3

> <reference>
ToxValDB

> <molecule_form>
not specified

$$$$

  Mrv1812 01171911372D          

 34 33  0  0  0  0            999 V2000
   -1.4944    1.0258    0.0000 C   0  0  0  0  0  0  0  0  0  0  0  0
   -0.6694    1.0258    0.0000 C   0  0  0  0  0  0  0  0  0  0  0  0
   -0.2569    0.3113    0.0000 C   0  0  0  0  0  0  0  0  0  0  0  0
   -0.2569    1.7403    0.0000 C   0  0  0  0  0  0  0  0  0  0  0  0
    0.5681    1.7403    0.0000 N   0  0  0  0  0  0  0  0  0  0  0  0
    0.9806    2.4547    0.0000 C   0  0  0  0  0  0  0  0  0  0  0  0
    0.5681    3.1692    0.0000 O   0  0  0  0  0  0  0  0  0  0  0  0
    1.8056    2.4547    0.0000 O   0  0  0  0  0  0  0  0  0  0  0  0
    2.2181    3.1692    0.0000 C   0  0  0  0  0  0  0  0  0  0  0  0
    2.6306    3.8837    0.0000 C   0  0  0  0  0  0  0  0  0  0  0  0
    2.9326    2.7567    0.0000 C   0  0  0  0  0  0  0  0  0  0  0  0
    1.5036    3.5817    0.0000 C   0  0  0  0  0  0  0  0  0  0  0  0
   -0.6694    2.4547    0.0000 C   0  0  0  0  0  0  0  0  0  0  0  0
   -0.2569    3.1692    0.0000 O   0  0  0  0  0  0  0  0  0  0  0  0
   -1.4944    2.4547    0.0000 O   0  0  0  0  0  0  0  0  0  0  0  0
   -1.4944    1.8508    0.0000 H   0  0  0  0  0  0  0  0  0  0  0  0
   -2.3194    1.0258    0.0000 H   0  0  0  0  0  0  0  0  0  0  0  0
   -1.4944    0.2008    0.0000 H   0  0  0  0  0  0  0  0  0  0  0  0
   -1.0819    0.3113    0.0000 H   0  0  0  0  0  0  0  0  0  0  0  0
   -0.4704   -0.4856    0.0000 H   0  0  0  0  0  0  0  0  0  0  0  0
    0.4576   -0.1012    0.0000 H   0  0  0  0  0  0  0  0  0  0  0  0
    0.3265    0.8947    0.0000 H   0  0  0  0  0  0  0  0  0  0  0  0
    0.1556    1.0258    0.0000 H   0  0  0  0  0  0  0  0  0  0  0  0
    1.3277    1.4182    0.0000 H   0  0  0  0  0  0  0  0  0  0  0  0
    3.3451    3.4712    0.0000 H   0  0  0  0  0  0  0  0  0  0  0  0
    3.0431    4.5981    0.0000 H   0  0  0  0  0  0  0  0  0  0  0  0
    1.9161    4.2962    0.0000 H   0  0  0  0  0  0  0  0  0  0  0  0
    2.2781    2.2545    0.0000 H   0  0  0  0  0  0  0  0  0  0  0  0
    3.1461    1.9598    0.0000 H   0  0  0  0  0  0  0  0  0  0  0  0
    3.7505    2.6490    0.0000 H   0  0  0  0  0  0  0  0  0  0  0  0
    1.0014    4.2362    0.0000 H   0  0  0  0  0  0  0  0  0  0  0  0
    0.7067    3.3682    0.0000 H   0  0  0  0  0  0  0  0  0  0  0  0
    1.3959    2.7638    0.0000 H   0  0  0  0  0  0  0  0  0  0  0  0
   -0.6694    3.8837    0.0000 H   0  0  0  0  0  0  0  0  0  0  0  0
  1  2  1  0  0  0  0
  2  3  1  0  0  0  0
  2  4  1  0  0  0  0
  4  5  1  0  0  0  0
  5  6  1  0  0  0  0
  6  7  2  0  0  0  0
  6  8  1  0  0  0  0
  8  9  1  0  0  0  0
  9 10  1  0  0  0  0
  9 11  1  0  0  0  0
  9 12  1  0  0  0  0
  4 13  1  0  0  0  0
 13 14  1  0  0  0  0
 13 15  2  0  0  0  0
  1 16  1  0  0  0  0
  1 17  1  0  0  0  0
  1 18  1  0  0  0  0
  2 19  1  0  0  0  0
  3 20  1  0  0  0  0
  3 21  1  0  0  0  0
  3 22  1  0  0  0  0
  4 23  1  0  0  0  0
  5 24  1  0  0  0  0
 10 25  1  0  0  0  0
 10 26  1  0  0  0  0
 10 27  1  0  0  0  0
 11 28  1  0  0  0  0
 11 29  1  0  0  0  0
 11 30  1  0  0  0  0
 12 31  1  0  0  0  0
 12 32  1  0  0  0  0
 12 33  1  0  0  0  0
 14 34  1  0  0  0  0
M  END
> <id>
233724

> <casrn>
13734-41-3

> <smiles (First)>
CC(C)C(NC(=O)OC(C)(C)C)C(O)=O

> <Molecular weight>
217.2621612548828

> <name>
L-Valine, N-[(1,1-dimethylethoxy)carbonyl]-

> <Outcome>
1

> <Molecule (RDKit Mol) (InChI Code)>
InChI=1S/C10H19NO4/c1-6(2)7(8(12)13)11-9(14)15-10(3,4)5/h6-7H,1-5H3,(H,11,14)(H,12,13)

> <reference>
ToxValDB

> <molecule_form>
not specified

$$$$

  Mrv1812 01171911372D          

  8  7  0  0  0  0            999 V2000
    0.9073   -1.9366    0.0000 O   0  0  0  0  0  0  0  0  0  0  0  0
    0.4948   -1.2221    0.0000 C   0  0  0  0  0  0  0  0  0  0  0  0
   -0.3302   -1.2221    0.0000 C   0  0  0  0  0  0  0  0  0  0  0  0
   -1.1552   -1.2221    0.0000 C   0  0  0  0  0  0  0  0  0  0  0  0
    0.4948   -2.6511    0.0000 H   0  0  0  0  0  0  0  0  0  0  0  0
    1.1841   -0.7688    0.0000 H   0  0  0  0  0  0  0  0  0  0  0  0
    0.5428   -0.3985    0.0000 H   0  0  0  0  0  0  0  0  0  0  0  0
   -1.9802   -1.2221    0.0000 H   0  0  0  0  0  0  0  0  0  0  0  0
  1  2  1  0  0  0  0
  2  3  1  0  0  0  0
  3  4  3  0  0  0  0
  1  5  1  0  0  0  0
  2  6  1  0  0  0  0
  2  7  1  0  0  0  0
  4  8  1  0  0  0  0
M  END
> <id>
901461

> <casrn>
107-19-7

> <smiles (First)>
OCC#C

> <Molecular weight>
56.063262939453125

> <name>
Propargyl alcohol

> <Outcome>
1

> <Molecule (RDKit Mol) (InChI Code)>
InChI=1S/C3H4O/c1-2-3-4/h1,4H,3H2

> <reference>
ToxValDB

> <molecule_form>
not specified

$$$$

  Mrv1812 01171911372D          

 26 25  0  0  0  0            999 V2000
    0.0000    0.3038    0.0000 C   0  0  0  0  0  0  0  0  0  0  0  0
    0.7145   -0.1087    0.0000 C   0  0  0  0  0  0  0  0  0  0  0  0
    1.4289    0.3038    0.0000 C   0  0  0  0  0  0  0  0  0  0  0  0
    2.1434   -0.1087    0.0000 C   0  0  0  0  0  0  0  0  0  0  0  0
    2.8579    0.3038    0.0000 C   0  0  0  0  0  0  0  0  0  0  0  0
    3.5724   -0.1087    0.0000 O   0  0  0  0  0  0  0  0  0  0  0  0
    4.2868    0.3038    0.0000 C   0  0  0  0  0  0  0  0  0  0  0  0
    4.2868    1.1288    0.0000 O   0  0  0  0  0  0  0  0  0  0  0  0
    5.0013   -0.1087    0.0000 C   0  0  0  0  0  0  0  0  0  0  0  0
    5.7158    0.3038    0.0000 C   0  0  0  0  0  0  0  0  0  0  0  0
    0.4125    1.0182    0.0000 H   0  0  0  0  0  0  0  0  0  0  0  0
   -0.7145    0.7163    0.0000 H   0  0  0  0  0  0  0  0  0  0  0  0
   -0.4125   -0.4107    0.0000 H   0  0  0  0  0  0  0  0  0  0  0  0
    0.3442   -0.8460    0.0000 H   0  0  0  0  0  0  0  0  0  0  0  0
    1.0847   -0.8460    0.0000 H   0  0  0  0  0  0  0  0  0  0  0  0
    1.7992    1.0410    0.0000 H   0  0  0  0  0  0  0  0  0  0  0  0
    1.0587    1.0410    0.0000 H   0  0  0  0  0  0  0  0  0  0  0  0
    1.7732   -0.8460    0.0000 H   0  0  0  0  0  0  0  0  0  0  0  0
    2.5137   -0.8460    0.0000 H   0  0  0  0  0  0  0  0  0  0  0  0
    3.2281    1.0410    0.0000 H   0  0  0  0  0  0  0  0  0  0  0  0
    2.4876    1.0410    0.0000 H   0  0  0  0  0  0  0  0  0  0  0  0
    4.6310   -0.8460    0.0000 H   0  0  0  0  0  0  0  0  0  0  0  0
    5.3716   -0.8460    0.0000 H   0  0  0  0  0  0  0  0  0  0  0  0
    6.1283   -0.4107    0.0000 H   0  0  0  0  0  0  0  0  0  0  0  0
    6.4302    0.7163    0.0000 H   0  0  0  0  0  0  0  0  0  0  0  0
    5.3033    1.0182    0.0000 H   0  0  0  0  0  0  0  0  0  0  0  0
  1  2  1  0  0  0  0
  2  3  1  0  0  0  0
  3  4  1  0  0  0  0
  4  5  1  0  0  0  0
  5  6  1  0  0  0  0
  6  7  1  0  0  0  0
  7  8  2  0  0  0  0
  7  9  1  0  0  0  0
  9 10  1  0  0  0  0
  1 11  1  0  0  0  0
  1 12  1  0  0  0  0
  1 13  1  0  0  0  0
  2 14  1  0  0  0  0
  2 15  1  0  0  0  0
  3 16  1  0  0  0  0
  3 17  1  0  0  0  0
  4 18  1  0  0  0  0
  4 19  1  0  0  0  0
  5 20  1  0  0  0  0
  5 21  1  0  0  0  0
  9 22  1  0  0  0  0
  9 23  1  0  0  0  0
 10 24  1  0  0  0  0
 10 25  1  0  0  0  0
 10 26  1  0  0  0  0
M  END
> <id>
274214; 274217

> <casrn>
624-54-4

> <smiles (First)>
CCCCCOC(=O)CC

> <Molecular weight>
144.21144104003906

> <name>
Pentyl propionate

> <Outcome>
0

> <Molecule (RDKit Mol) (InChI Code)>
InChI=1S/C8H16O2/c1-3-5-6-7-10-8(9)4-2/h3-7H2,1-2H3

> <reference>
ToxValDB

> <molecule_form>
not specified

$$$$

  Mrv1812 01171911372D          

  8  7  0  0  0  0            999 V2000
    1.1408   -0.4088    0.0000 C   0  0  0  0  0  0  0  0  0  0  0  0
    0.3158   -0.4088    0.0000 O   0  0  0  0  0  0  0  0  0  0  0  0
   -0.0967    0.3057    0.0000 C   0  0  0  0  0  0  0  0  0  0  0  0
   -0.9217    0.3057    0.0000 O   0  0  0  0  0  0  0  0  0  0  0  0
    1.1408   -1.2338    0.0000 H   0  0  0  0  0  0  0  0  0  0  0  0
    1.9658   -0.4088    0.0000 H   0  0  0  0  0  0  0  0  0  0  0  0
    1.1408    0.4162    0.0000 H   0  0  0  0  0  0  0  0  0  0  0  0
    0.3158    1.0202    0.0000 H   0  0  0  0  0  0  0  0  0  0  0  0
  1  2  1  0  0  0  0
  2  3  1  0  0  0  0
  3  4  2  0  0  0  0
  1  5  1  0  0  0  0
  1  6  1  0  0  0  0
  1  7  1  0  0  0  0
  3  8  1  0  0  0  0
M  END
> <id>
202884; 799988

> <casrn>
107-31-3

> <smiles (First)>
COC=O

> <Molecular weight>
60.05195999145508

> <name>
Methyl formate

> <Outcome>
0

> <Molecule (RDKit Mol) (InChI Code)>
InChI=1S/C2H4O2/c1-4-2-3/h2H,1H3

> <reference>
ToxValDB

> <molecule_form>
not specified

$$$$

  Mrv1812 01171911372D          

 21 22  0  0  0  0            999 V2000
   -1.7263    0.0708    0.0000 C   0  0  0  0  0  0  0  0  0  0  0  0
   -1.0119    0.4833    0.0000 C   0  0  0  0  0  0  0  0  0  0  0  0
   -0.2974    0.0708    0.0000 C   0  0  0  0  0  0  0  0  0  0  0  0
    0.4171    0.4833    0.0000 C   0  0  0  0  0  0  0  0  0  0  0  0
    1.1315    0.0708    0.0000 C   0  0  0  0  0  0  0  0  0  0  0  0
    1.1315   -0.7542    0.0000 C   0  0  0  0  0  0  0  0  0  0  0  0
    0.4171   -1.1667    0.0000 C   0  0  0  0  0  0  0  0  0  0  0  0
   -0.2974   -0.7542    0.0000 C   0  0  0  0  0  0  0  0  0  0  0  0
   -1.0119   -1.1667    0.0000 C   0  0  0  0  0  0  0  0  0  0  0  0
   -1.7263   -0.7542    0.0000 N   0  0  0  0  0  0  0  0  0  0  0  0
   -2.1797    0.7601    0.0000 H   0  0  0  0  0  0  0  0  0  0  0  0
   -2.5499    0.1187    0.0000 H   0  0  0  0  0  0  0  0  0  0  0  0
   -0.6416    1.2205    0.0000 H   0  0  0  0  0  0  0  0  0  0  0  0
   -1.3821    1.2205    0.0000 H   0  0  0  0  0  0  0  0  0  0  0  0
    0.4171    1.3083    0.0000 H   0  0  0  0  0  0  0  0  0  0  0  0
    1.8460    0.4833    0.0000 H   0  0  0  0  0  0  0  0  0  0  0  0
    1.8460   -1.1667    0.0000 H   0  0  0  0  0  0  0  0  0  0  0  0
    0.4171   -1.9917    0.0000 H   0  0  0  0  0  0  0  0  0  0  0  0
   -1.3821   -1.9040    0.0000 H   0  0  0  0  0  0  0  0  0  0  0  0
   -0.6416   -1.9040    0.0000 H   0  0  0  0  0  0  0  0  0  0  0  0
   -2.4408   -1.1667    0.0000 H   0  0  0  0  0  0  0  0  0  0  0  0
  2  1  1  0  0  0  0
  3  2  1  0  0  0  0
  3  4  4  0  0  0  0
  4  5  4  0  0  0  0
  5  6  4  0  0  0  0
  6  7  4  0  0  0  0
  7  8  4  0  0  0  0
  9  8  1  0  0  0  0
 10  9  1  0  0  0  0
  1 10  1  0  0  0  0
  8  3  4  0  0  0  0
  1 11  1  0  0  0  0
  1 12  1  0  0  0  0
  2 13  1  0  0  0  0
  2 14  1  0  0  0  0
  4 15  1  0  0  0  0
  5 16  1  0  0  0  0
  6 17  1  0  0  0  0
  7 18  1  0  0  0  0
  9 19  1  0  0  0  0
  9 20  1  0  0  0  0
 10 21  1  0  0  0  0
M  END
> <id>
341289

> <casrn>
91-21-4

> <smiles (First)>
C1Cc2ccccc2CN1

> <Molecular weight>
133.19033813476562

> <name>
1,2,3,4-Tetrahydroisoquinoline

> <Outcome>
1

> <Molecule (RDKit Mol) (InChI Code)>
InChI=1S/C9H11N/c1-2-4-9-7-10-6-5-8(9)3-1/h1-4,10H,5-7H2

> <reference>
ToxValDB

> <molecule_form>
not specified

$$$$

  Mrv1812 01171911372D          

 24 24  0  0  0  0            999 V2000
   -1.0338   -0.9060    0.0000 C   0  0  0  0  0  0  0  0  0  0  0  0
   -0.3193   -0.4935    0.0000 C   0  0  0  0  0  0  0  0  0  0  0  0
    0.3951   -0.9060    0.0000 C   0  0  0  0  0  0  0  0  0  0  0  0
    0.3951   -1.7310    0.0000 O   0  0  0  0  0  0  0  0  0  0  0  0
    1.1096   -0.4935    0.0000 O   0  0  0  0  0  0  0  0  0  0  0  0
    1.8241   -0.9060    0.0000 C   0  0  0  0  0  0  0  0  0  0  0  0
    2.5385   -0.4935    0.0000 C   0  0  0  0  0  0  0  0  0  0  0  0
    3.2530   -0.9060    0.0000 C   0  0  0  0  0  0  0  0  0  0  0  0
    3.9675   -0.4935    0.0000 C   0  0  0  0  0  0  0  0  0  0  0  0
    3.9675    0.3315    0.0000 C   0  0  0  0  0  0  0  0  0  0  0  0
    3.2530    0.7440    0.0000 C   0  0  0  0  0  0  0  0  0  0  0  0
    2.5385    0.3315    0.0000 C   0  0  0  0  0  0  0  0  0  0  0  0
   -1.4463   -0.1915    0.0000 H   0  0  0  0  0  0  0  0  0  0  0  0
   -1.7483   -1.3185    0.0000 H   0  0  0  0  0  0  0  0  0  0  0  0
   -0.6213   -1.6205    0.0000 H   0  0  0  0  0  0  0  0  0  0  0  0
    0.0509    0.2437    0.0000 H   0  0  0  0  0  0  0  0  0  0  0  0
   -0.6896    0.2437    0.0000 H   0  0  0  0  0  0  0  0  0  0  0  0
    1.4538   -1.6432    0.0000 H   0  0  0  0  0  0  0  0  0  0  0  0
    2.1943   -1.6432    0.0000 H   0  0  0  0  0  0  0  0  0  0  0  0
    3.2530   -1.7310    0.0000 H   0  0  0  0  0  0  0  0  0  0  0  0
    4.6820   -0.9060    0.0000 H   0  0  0  0  0  0  0  0  0  0  0  0
    4.6820    0.7440    0.0000 H   0  0  0  0  0  0  0  0  0  0  0  0
    3.2530    1.5690    0.0000 H   0  0  0  0  0  0  0  0  0  0  0  0
    1.8241    0.7440    0.0000 H   0  0  0  0  0  0  0  0  0  0  0  0
  1  2  1  0  0  0  0
  2  3  1  0  0  0  0
  3  4  2  0  0  0  0
  3  5  1  0  0  0  0
  5  6  1  0  0  0  0
  6  7  1  0  0  0  0
  8  7  4  0  0  0  0
  9  8  4  0  0  0  0
 10  9  4  0  0  0  0
 11 10  4  0  0  0  0
 12 11  4  0  0  0  0
  7 12  4  0  0  0  0
  1 13  1  0  0  0  0
  1 14  1  0  0  0  0
  1 15  1  0  0  0  0
  2 16  1  0  0  0  0
  2 17  1  0  0  0  0
  6 18  1  0  0  0  0
  6 19  1  0  0  0  0
  8 20  1  0  0  0  0
  9 21  1  0  0  0  0
 10 22  1  0  0  0  0
 11 23  1  0  0  0  0
 12 24  1  0  0  0  0
M  END
> <id>
219488

> <casrn>
122-63-4

> <smiles (First)>
CCC(=O)OCc1ccccc1

> <Molecular weight>
164.20108032226562

> <name>
Benzyl propanoate

> <Outcome>
0

> <Molecule (RDKit Mol) (InChI Code)>
InChI=1S/C10H12O2/c1-2-10(11)12-8-9-6-4-3-5-7-9/h3-7H,2,8H2,1H3

> <reference>
ToxValDB

> <molecule_form>
not specified

$$$$

  Mrv1812 01171911372D          

 17 17  0  0  0  0            999 V2000
    1.5633    0.5533    0.0000 N   0  0  0  0  0  0  0  0  0  0  0  0
    0.8488    0.1408    0.0000 C   0  0  0  0  0  0  0  0  0  0  0  0
    0.1343    0.5533    0.0000 C   0  0  0  0  0  0  0  0  0  0  0  0
   -0.5801    0.1408    0.0000 C   0  0  0  0  0  0  0  0  0  0  0  0
   -0.5801   -0.6842    0.0000 C   0  0  0  0  0  0  0  0  0  0  0  0
    0.1343   -1.0967    0.0000 C   0  0  0  0  0  0  0  0  0  0  0  0
    0.8488   -0.6842    0.0000 C   0  0  0  0  0  0  0  0  0  0  0  0
    1.5633   -1.0967    0.0000 O   0  0  0  0  0  0  0  0  0  0  0  0
   -1.2946    0.5533    0.0000 N   0  0  0  0  0  0  0  0  0  0  0  0
   -2.0091    0.1408    0.0000 O   0  0  0  0  0  0  0  0  0  0  0  0
   -1.2946    1.3783    0.0000 O   0  0  0  0  0  0  0  0  0  0  0  0
    2.2777    0.1408    0.0000 H   0  0  0  0  0  0  0  0  0  0  0  0
    1.5633    1.3783    0.0000 H   0  0  0  0  0  0  0  0  0  0  0  0
    0.1343    1.3783    0.0000 H   0  0  0  0  0  0  0  0  0  0  0  0
   -1.2946   -1.0967    0.0000 H   0  0  0  0  0  0  0  0  0  0  0  0
    0.1343   -1.9217    0.0000 H   0  0  0  0  0  0  0  0  0  0  0  0
    1.5633   -1.9217    0.0000 H   0  0  0  0  0  0  0  0  0  0  0  0
  1  2  1  0  0  0  0
  3  2  4  0  0  0  0
  4  3  4  0  0  0  0
  5  4  4  0  0  0  0
  6  5  4  0  0  0  0
  7  6  4  0  0  0  0
  7  8  1  0  0  0  0
  4  9  1  0  0  0  0
  9 10  2  0  0  0  0
  9 11  2  0  0  0  0
  2  7  4  0  0  0  0
  1 12  1  0  0  0  0
  1 13  1  0  0  0  0
  3 14  1  0  0  0  0
  5 15  1  0  0  0  0
  6 16  1  0  0  0  0
  8 17  1  0  0  0  0
M  END
> <id>
354688

> <casrn>
99-57-0

> <smiles (First)>
Nc1cc(ccc1O)[N+]([O-])=O

> <Molecular weight>
154.12344360351562

> <name>
2-Amino-4-nitrophenol

> <Outcome>
0

> <Molecule (RDKit Mol) (InChI Code)>
InChI=1S/C6H6N2O3/c7-5-3-4(8(10)11)1-2-6(5)9/h1-3,9H,7H2

> <reference>
ToxValDB

> <molecule_form>
not specified

$$$$

  Mrv1812 01171911372D          

 19 18  0  0  0  0            999 V2000
    0.5006    1.9091    0.0000 C   0  0  0  0  0  0  0  0  0  0  0  0
    0.9131    1.1946    0.0000 C   0  0  0  0  0  0  0  0  0  0  0  0
    1.7381    1.1946    0.0000 C   0  0  0  0  0  0  0  0  0  0  0  0
    0.5006    0.4801    0.0000 N   0  0  0  0  0  0  0  0  0  0  0  0
    0.9131   -0.2343    0.0000 C   0  0  0  0  0  0  0  0  0  0  0  0
   -0.3244    0.4801    0.0000 C   0  0  0  0  0  0  0  0  0  0  0  0
    1.2151    2.3216    0.0000 H   0  0  0  0  0  0  0  0  0  0  0  0
    0.0881    2.6235    0.0000 H   0  0  0  0  0  0  0  0  0  0  0  0
   -0.2139    1.4966    0.0000 H   0  0  0  0  0  0  0  0  0  0  0  0
    1.3256    1.9091    0.0000 H   0  0  0  0  0  0  0  0  0  0  0  0
    1.5246    0.3977    0.0000 H   0  0  0  0  0  0  0  0  0  0  0  0
    2.4526    0.7821    0.0000 H   0  0  0  0  0  0  0  0  0  0  0  0
    2.3215    1.7780    0.0000 H   0  0  0  0  0  0  0  0  0  0  0  0
    0.1046   -0.3986    0.0000 H   0  0  0  0  0  0  0  0  0  0  0  0
    0.8122   -1.0531    0.0000 H   0  0  0  0  0  0  0  0  0  0  0  0
    1.6575   -0.5900    0.0000 H   0  0  0  0  0  0  0  0  0  0  0  0
   -0.3244    1.3051    0.0000 H   0  0  0  0  0  0  0  0  0  0  0  0
   -1.1494    0.4801    0.0000 H   0  0  0  0  0  0  0  0  0  0  0  0
   -0.3244   -0.3449    0.0000 H   0  0  0  0  0  0  0  0  0  0  0  0
  1  2  1  0  0  0  0
  2  3  1  0  0  0  0
  2  4  1  0  0  0  0
  4  5  1  0  0  0  0
  4  6  1  0  0  0  0
  1  7  1  0  0  0  0
  1  8  1  0  0  0  0
  1  9  1  0  0  0  0
  2 10  1  0  0  0  0
  3 11  1  0  0  0  0
  3 12  1  0  0  0  0
  3 13  1  0  0  0  0
  5 14  1  0  0  0  0
  5 15  1  0  0  0  0
  5 16  1  0  0  0  0
  6 17  1  0  0  0  0
  6 18  1  0  0  0  0
  6 19  1  0  0  0  0
M  END
> <id>
354744

> <casrn>
996-35-0

> <smiles (First)>
CC(C)N(C)C

> <Molecular weight>
87.16342163085938

> <name>
Dimethylisopropylamine

> <Outcome>
1

> <Molecule (RDKit Mol) (InChI Code)>
InChI=1S/C5H13N/c1-5(2)6(3)4/h5H,1-4H3

> <reference>
ToxValDB

> <molecule_form>
not specified

$$$$

  Mrv1812 01171911372D          

 22 21  0  0  0  0            999 V2000
    2.9430   -0.7423    0.0000 C   0  0  0  0  0  0  0  0  0  0  0  0
    2.5305   -0.0279    0.0000 C   0  0  0  0  0  0  0  0  0  0  0  0
    1.7055   -0.0279    0.0000 Al  0  0  0  0  0  0  0  0  0  0  0  0
    1.2930    0.6866    0.0000 C   0  0  0  0  0  0  0  0  0  0  0  0
    0.4680    0.6866    0.0000 C   0  0  0  0  0  0  0  0  0  0  0  0
    1.2930   -0.7423    0.0000 C   0  0  0  0  0  0  0  0  0  0  0  0
    0.4680   -0.7423    0.0000 C   0  0  0  0  0  0  0  0  0  0  0  0
    2.2285   -1.1548    0.0000 H   0  0  0  0  0  0  0  0  0  0  0  0
    3.3555   -1.4568    0.0000 H   0  0  0  0  0  0  0  0  0  0  0  0
    3.6574   -0.3298    0.0000 H   0  0  0  0  0  0  0  0  0  0  0  0
    3.2198    0.4255    0.0000 H   0  0  0  0  0  0  0  0  0  0  0  0
    2.5784    0.7958    0.0000 H   0  0  0  0  0  0  0  0  0  0  0  0
    1.9823    1.1400    0.0000 H   0  0  0  0  0  0  0  0  0  0  0  0
    1.3409    1.5102    0.0000 H   0  0  0  0  0  0  0  0  0  0  0  0
    0.4680    1.5116    0.0000 H   0  0  0  0  0  0  0  0  0  0  0  0
   -0.3570    0.6866    0.0000 H   0  0  0  0  0  0  0  0  0  0  0  0
    0.4680   -0.1384    0.0000 H   0  0  0  0  0  0  0  0  0  0  0  0
    1.3409   -1.5659    0.0000 H   0  0  0  0  0  0  0  0  0  0  0  0
    1.9823   -1.1957    0.0000 H   0  0  0  0  0  0  0  0  0  0  0  0
   -0.2942   -0.4266    0.0000 H   0  0  0  0  0  0  0  0  0  0  0  0
   -0.1154   -1.3257    0.0000 H   0  0  0  0  0  0  0  0  0  0  0  0
    0.7837   -1.5045    0.0000 H   0  0  0  0  0  0  0  0  0  0  0  0
  1  2  1  0  0  0  0
  2  3  1  0  0  0  0
  3  4  1  0  0  0  0
  4  5  1  0  0  0  0
  3  6  1  0  0  0  0
  6  7  1  0  0  0  0
  1  8  1  0  0  0  0
  1  9  1  0  0  0  0
  1 10  1  0  0  0  0
  2 11  1  0  0  0  0
  2 12  1  0  0  0  0
  4 13  1  0  0  0  0
  4 14  1  0  0  0  0
  5 15  1  0  0  0  0
  5 16  1  0  0  0  0
  5 17  1  0  0  0  0
  6 18  1  0  0  0  0
  6 19  1  0  0  0  0
  7 20  1  0  0  0  0
  7 21  1  0  0  0  0
  7 22  1  0  0  0  0
M  END
> <id>
353277

> <casrn>
97-93-8

> <smiles (First)>
CC[Al](CC)CC

> <Molecular weight>
114.16484069824219

> <name>
Triethylaluminum

> <Outcome>
1

> <Molecule (RDKit Mol) (InChI Code)>
InChI=1S/3C2H5.Al/c3*1-2;/h3*1H2,2H3;

> <reference>
ToxValDB

> <molecule_form>
not specified

$$$$

  Mrv1812 01171911372D          

 30 33  0  0  0  0            999 V2000
    2.7872   -2.7151    0.0000 O   0  0  0  0  0  0  0  0  0  0  0  0
    2.2352   -2.1020    0.0000 C   0  0  0  0  0  0  0  0  0  0  0  0
    1.4147   -2.1882    0.0000 O   0  0  0  0  0  0  0  0  0  0  0  0
    1.0791   -1.4345    0.0000 C   0  0  0  0  0  0  0  0  0  0  0  0
    0.2722   -1.2630    0.0000 O   0  0  0  0  0  0  0  0  0  0  0  0
    1.6922   -0.8825    0.0000 C   0  0  0  0  0  0  0  0  0  0  0  0
    1.6922   -0.0575    0.0000 C   0  0  0  0  0  0  0  0  0  0  0  0
    2.4067    0.3550    0.0000 C   0  0  0  0  0  0  0  0  0  0  0  0
    3.1212   -0.0575    0.0000 C   0  0  0  0  0  0  0  0  0  0  0  0
    3.1212   -0.8825    0.0000 C   0  0  0  0  0  0  0  0  0  0  0  0
    2.4067   -1.2950    0.0000 C   0  0  0  0  0  0  0  0  0  0  0  0
    2.4067    1.1800    0.0000 C   0  0  0  0  0  0  0  0  0  0  0  0
    3.1212    1.5925    0.0000 O   0  0  0  0  0  0  0  0  0  0  0  0
    1.6922    1.5925    0.0000 C   0  0  0  0  0  0  0  0  0  0  0  0
    1.6922    2.4175    0.0000 C   0  0  0  0  0  0  0  0  0  0  0  0
    0.9778    2.8300    0.0000 C   0  0  0  0  0  0  0  0  0  0  0  0
    0.2633    2.4175    0.0000 C   0  0  0  0  0  0  0  0  0  0  0  0
   -0.5213    2.6724    0.0000 C   0  0  0  0  0  0  0  0  0  0  0  0
   -0.7763    3.4571    0.0000 O   0  0  0  0  0  0  0  0  0  0  0  0
   -1.0063    2.0050    0.0000 O   0  0  0  0  0  0  0  0  0  0  0  0
   -0.5213    1.3376    0.0000 C   0  0  0  0  0  0  0  0  0  0  0  0
   -0.7763    0.5529    0.0000 O   0  0  0  0  0  0  0  0  0  0  0  0
    0.2633    1.5925    0.0000 C   0  0  0  0  0  0  0  0  0  0  0  0
    0.9778    1.1800    0.0000 C   0  0  0  0  0  0  0  0  0  0  0  0
    0.9778    0.3550    0.0000 H   0  0  0  0  0  0  0  0  0  0  0  0
    3.8356    0.3550    0.0000 H   0  0  0  0  0  0  0  0  0  0  0  0
    3.8356   -1.2950    0.0000 H   0  0  0  0  0  0  0  0  0  0  0  0
    2.4067    2.8300    0.0000 H   0  0  0  0  0  0  0  0  0  0  0  0
    0.9778    3.6550    0.0000 H   0  0  0  0  0  0  0  0  0  0  0  0
    0.2633    0.7675    0.0000 H   0  0  0  0  0  0  0  0  0  0  0  0
  1  2  2  0  0  0  0
  3  2  1  0  0  0  0
  4  3  1  0  0  0  0
  4  5  2  0  0  0  0
  6  4  1  0  0  0  0
  6  7  4  0  0  0  0
  7  8  4  0  0  0  0
  8  9  4  0  0  0  0
  9 10  4  0  0  0  0
 10 11  4  0  0  0  0
  8 12  1  0  0  0  0
 12 13  2  0  0  0  0
 12 14  1  0  0  0  0
 15 14  4  0  0  0  0
 16 15  4  0  0  0  0
 17 16  4  0  0  0  0
 17 18  1  0  0  0  0
 18 19  2  0  0  0  0
 18 20  1  0  0  0  0
 20 21  1  0  0  0  0
 21 22  2  0  0  0  0
 21 23  1  0  0  0  0
 24 23  4  0  0  0  0
  2 11  1  0  0  0  0
 11  6  4  0  0  0  0
 14 24  4  0  0  0  0
 23 17  4  0  0  0  0
  7 25  1  0  0  0  0
  9 26  1  0  0  0  0
 10 27  1  0  0  0  0
 15 28  1  0  0  0  0
 16 29  1  0  0  0  0
 24 30  1  0  0  0  0
M  END
> <id>
906285

> <casrn>
2421-28-5

> <smiles (First)>
O=C1OC(=O)c2cc(ccc12)C(=O)c3ccc4C(=O)OC(=O)c4c3

> <Molecular weight>
322.225341796875

> <name>
Benzophenonetetracarboxylic dianhydride

> <Outcome>
1

> <Molecule (RDKit Mol) (InChI Code)>
InChI=1S/C17H6O7/c18-13(7-1-3-9-11(5-7)16(21)23-14(9)19)8-2-4-10-12(6-8)17(22)24-15(10)20/h1-6H

> <reference>
ToxValDB

> <molecule_form>
not specified

$$$$

  Mrv1812 01171911372D          

 19 19  0  0  0  0            999 V2000
    2.3191   -0.0578    0.0000 C   0  0  0  0  0  0  0  0  0  0  0  0
    1.6046    0.3547    0.0000 C   0  0  0  0  0  0  0  0  0  0  0  0
    1.6046    1.1797    0.0000 O   0  0  0  0  0  0  0  0  0  0  0  0
    0.8902   -0.0578    0.0000 C   0  0  0  0  0  0  0  0  0  0  0  0
    0.1757    0.3547    0.0000 C   0  0  0  0  0  0  0  0  0  0  0  0
   -0.5388   -0.0578    0.0000 C   0  0  0  0  0  0  0  0  0  0  0  0
   -0.5388   -0.8828    0.0000 C   0  0  0  0  0  0  0  0  0  0  0  0
    0.1757   -1.2953    0.0000 C   0  0  0  0  0  0  0  0  0  0  0  0
    0.8902   -0.8828    0.0000 C   0  0  0  0  0  0  0  0  0  0  0  0
    1.9066   -0.7723    0.0000 H   0  0  0  0  0  0  0  0  0  0  0  0
    3.0336   -0.4703    0.0000 H   0  0  0  0  0  0  0  0  0  0  0  0
    2.7316    0.6567    0.0000 H   0  0  0  0  0  0  0  0  0  0  0  0
    2.3191    0.7672    0.0000 H   0  0  0  0  0  0  0  0  0  0  0  0
    1.1921    1.8942    0.0000 H   0  0  0  0  0  0  0  0  0  0  0  0
    0.1757    1.1797    0.0000 H   0  0  0  0  0  0  0  0  0  0  0  0
   -1.2533    0.3547    0.0000 H   0  0  0  0  0  0  0  0  0  0  0  0
   -1.2533   -1.2953    0.0000 H   0  0  0  0  0  0  0  0  0  0  0  0
    0.1757   -2.1203    0.0000 H   0  0  0  0  0  0  0  0  0  0  0  0
    1.6046   -1.2953    0.0000 H   0  0  0  0  0  0  0  0  0  0  0  0
  1  2  1  0  0  0  0
  2  3  1  0  0  0  0
  2  4  1  0  0  0  0
  5  4  4  0  0  0  0
  6  5  4  0  0  0  0
  7  6  4  0  0  0  0
  8  7  4  0  0  0  0
  9  8  4  0  0  0  0
  4  9  4  0  0  0  0
  1 10  1  0  0  0  0
  1 11  1  0  0  0  0
  1 12  1  0  0  0  0
  2 13  1  0  0  0  0
  3 14  1  0  0  0  0
  5 15  1  0  0  0  0
  6 16  1  0  0  0  0
  7 17  1  0  0  0  0
  8 18  1  0  0  0  0
  9 19  1  0  0  0  0
M  END
> <id>
354158

> <casrn>
98-85-1

> <smiles (First)>
CC(O)c1ccccc1

> <Molecular weight>
122.1644058227539

> <name>
alpha-Methylbenzyl alcohol

> <Outcome>
0

> <Molecule (RDKit Mol) (InChI Code)>
InChI=1S/C8H10O/c1-7(9)8-5-3-2-4-6-8/h2-7,9H,1H3

> <reference>
ToxValDB

> <molecule_form>
not specified

$$$$

  Mrv1812 01171911372D          

 76 77  0  0  0  0            999 V2000
   -7.1547   -5.4995    0.0000 C   0  0  0  0  0  0  0  0  0  0  0  0
   -6.6146   -4.8758    0.0000 C   0  0  0  0  0  0  0  0  0  0  0  0
   -5.8045   -5.0318    0.0000 C   0  0  0  0  0  0  0  0  0  0  0  0
   -5.2644   -4.4081    0.0000 C   0  0  0  0  0  0  0  0  0  0  0  0
   -4.4543   -4.5640    0.0000 C   0  0  0  0  0  0  0  0  0  0  0  0
   -3.9142   -3.9404    0.0000 C   0  0  0  0  0  0  0  0  0  0  0  0
   -3.1040   -4.0963    0.0000 C   0  0  0  0  0  0  0  0  0  0  0  0
   -2.5639   -3.4726    0.0000 C   0  0  0  0  0  0  0  0  0  0  0  0
   -1.7538   -3.6286    0.0000 C   0  0  0  0  0  0  0  0  0  0  0  0
   -1.2137   -3.0049    0.0000 C   0  0  0  0  0  0  0  0  0  0  0  0
   -1.4838   -2.2254    0.0000 C   0  0  0  0  0  0  0  0  0  0  0  0
   -0.9437   -1.6017    0.0000 C   0  0  0  0  0  0  0  0  0  0  0  0
   -1.2137   -0.8222    0.0000 C   0  0  0  0  0  0  0  0  0  0  0  0
   -0.6736   -0.1985    0.0000 C   0  0  0  0  0  0  0  0  0  0  0  0
    0.1365   -0.3544    0.0000 C   0  0  0  0  0  0  0  0  0  0  0  0
    0.4065   -1.1340    0.0000 C   0  0  0  0  0  0  0  0  0  0  0  0
   -0.1335   -1.7576    0.0000 C   0  0  0  0  0  0  0  0  0  0  0  0
    0.1365   -2.5372    0.0000 C   0  0  0  0  0  0  0  0  0  0  0  0
   -0.4036   -3.1608    0.0000 C   0  0  0  0  0  0  0  0  0  0  0  0
   -0.1335   -3.9404    0.0000 C   0  0  0  0  0  0  0  0  0  0  0  0
   -0.6736   -4.5640    0.0000 C   0  0  0  0  0  0  0  0  0  0  0  0
   -0.4036   -5.3436    0.0000 C   0  0  0  0  0  0  0  0  0  0  0  0
    0.4065   -5.4995    0.0000 C   0  0  0  0  0  0  0  0  0  0  0  0
    0.9466   -4.8758    0.0000 C   0  0  0  0  0  0  0  0  0  0  0  0
    1.7568   -5.0318    0.0000 C   0  0  0  0  0  0  0  0  0  0  0  0
    2.2969   -4.4081    0.0000 C   0  0  0  0  0  0  0  0  0  0  0  0
    3.1070   -4.5640    0.0000 C   0  0  0  0  0  0  0  0  0  0  0  0
    3.6471   -3.9404    0.0000 C   0  0  0  0  0  0  0  0  0  0  0  0
    0.9466   -2.6931    0.0000 S   0  0  0  0  0  0  0  0  0  0  0  0
    1.7568   -2.8490    0.0000 O   0  0  0  0  0  0  0  0  0  0  0  0
    0.7907   -3.5032    0.0000 O   0  0  0  0  0  0  0  0  0  0  0  0
    1.1025   -1.8830    0.0000 O   0  0  0  0  0  0  0  0  0  0  0  0
   -7.7783   -4.9594    0.0000 H   0  0  0  0  0  0  0  0  0  0  0  0
   -7.6948   -6.1231    0.0000 H   0  0  0  0  0  0  0  0  0  0  0  0
   -6.5311   -6.0396    0.0000 H   0  0  0  0  0  0  0  0  0  0  0  0
   -6.5061   -4.0580    0.0000 H   0  0  0  0  0  0  0  0  0  0  0  0
   -7.2058   -4.3004    0.0000 H   0  0  0  0  0  0  0  0  0  0  0  0
   -5.9130   -5.8496    0.0000 H   0  0  0  0  0  0  0  0  0  0  0  0
   -5.2133   -5.6072    0.0000 H   0  0  0  0  0  0  0  0  0  0  0  0
   -5.1559   -3.5903    0.0000 H   0  0  0  0  0  0  0  0  0  0  0  0
   -5.8556   -3.8327    0.0000 H   0  0  0  0  0  0  0  0  0  0  0  0
   -4.5628   -5.3818    0.0000 H   0  0  0  0  0  0  0  0  0  0  0  0
   -3.8631   -5.1395    0.0000 H   0  0  0  0  0  0  0  0  0  0  0  0
   -3.8056   -3.1226    0.0000 H   0  0  0  0  0  0  0  0  0  0  0  0
   -4.5054   -3.3649    0.0000 H   0  0  0  0  0  0  0  0  0  0  0  0
   -3.2126   -4.9141    0.0000 H   0  0  0  0  0  0  0  0  0  0  0  0
   -2.5129   -4.6717    0.0000 H   0  0  0  0  0  0  0  0  0  0  0  0
   -2.4554   -2.6548    0.0000 H   0  0  0  0  0  0  0  0  0  0  0  0
   -3.1551   -2.8972    0.0000 H   0  0  0  0  0  0  0  0  0  0  0  0
   -1.8624   -4.4464    0.0000 H   0  0  0  0  0  0  0  0  0  0  0  0
   -1.1626   -4.2040    0.0000 H   0  0  0  0  0  0  0  0  0  0  0  0
   -2.2939   -2.0695    0.0000 H   0  0  0  0  0  0  0  0  0  0  0  0
   -2.0239   -0.6663    0.0000 H   0  0  0  0  0  0  0  0  0  0  0  0
   -0.9437    0.5810    0.0000 H   0  0  0  0  0  0  0  0  0  0  0  0
    0.6766    0.2692    0.0000 H   0  0  0  0  0  0  0  0  0  0  0  0
    1.2167   -1.2899    0.0000 H   0  0  0  0  0  0  0  0  0  0  0  0
    0.5204   -4.4433    0.0000 H   0  0  0  0  0  0  0  0  0  0  0  0
    0.6604   -3.7161    0.0000 H   0  0  0  0  0  0  0  0  0  0  0  0
   -1.3379   -5.0533    0.0000 H   0  0  0  0  0  0  0  0  0  0  0  0
    0.1365   -4.7199    0.0000 H   0  0  0  0  0  0  0  0  0  0  0  0
   -1.1661   -5.6585    0.0000 H   0  0  0  0  0  0  0  0  0  0  0  0
   -0.6063   -6.1433    0.0000 H   0  0  0  0  0  0  0  0  0  0  0  0
    0.2980   -6.3173    0.0000 H   0  0  0  0  0  0  0  0  0  0  0  0
    0.9977   -6.0749    0.0000 H   0  0  0  0  0  0  0  0  0  0  0  0
    1.3360   -4.1485    0.0000 H   0  0  0  0  0  0  0  0  0  0  0  0
    1.2167   -5.6554    0.0000 H   0  0  0  0  0  0  0  0  0  0  0  0
    2.1581   -5.7526    0.0000 H   0  0  0  0  0  0  0  0  0  0  0  0
    2.5275   -5.3260    0.0000 H   0  0  0  0  0  0  0  0  0  0  0  0
    2.4054   -3.5903    0.0000 H   0  0  0  0  0  0  0  0  0  0  0  0
    1.7057   -3.8327    0.0000 H   0  0  0  0  0  0  0  0  0  0  0  0
    3.4098   -5.3314    0.0000 H   0  0  0  0  0  0  0  0  0  0  0  0
    3.9202   -4.7027    0.0000 H   0  0  0  0  0  0  0  0  0  0  0  0
    4.4695   -3.8748    0.0000 H   0  0  0  0  0  0  0  0  0  0  0  0
    3.7987   -3.1294    0.0000 H   0  0  0  0  0  0  0  0  0  0  0  0
    2.9040   -3.5821    0.0000 H   0  0  0  0  0  0  0  0  0  0  0  0
    2.0268   -3.6286    0.0000 H   0  0  0  0  0  0  0  0  0  0  0  0
  1  2  1  0  0  0  0
  2  3  1  0  0  0  0
  3  4  1  0  0  0  0
  4  5  1  0  0  0  0
  5  6  1  0  0  0  0
  6  7  1  0  0  0  0
  7  8  1  0  0  0  0
  8  9  1  0  0  0  0
  9 10  1  0  0  0  0
 11 10  4  0  0  0  0
 12 11  4  0  0  0  0
 12 13  4  0  0  0  0
 13 14  4  0  0  0  0
 14 15  4  0  0  0  0
 15 16  4  0  0  0  0
 16 17  4  0  0  0  0
 18 17  4  0  0  0  0
 19 18  4  0  0  0  0
 19 20  1  0  0  0  0
 20 21  1  0  0  0  0
 21 22  1  0  0  0  0
 22 23  1  0  0  0  0
 23 24  1  0  0  0  0
 24 25  1  0  0  0  0
 25 26  1  0  0  0  0
 26 27  1  0  0  0  0
 27 28  1  0  0  0  0
 18 29  1  0  0  0  0
 29 30  1  0  0  0  0
 29 31  2  0  0  0  0
 29 32  2  0  0  0  0
 10 19  4  0  0  0  0
 17 12  4  0  0  0  0
  1 33  1  0  0  0  0
  1 34  1  0  0  0  0
  1 35  1  0  0  0  0
  2 36  1  0  0  0  0
  2 37  1  0  0  0  0
  3 38  1  0  0  0  0
  3 39  1  0  0  0  0
  4 40  1  0  0  0  0
  4 41  1  0  0  0  0
  5 42  1  0  0  0  0
  5 43  1  0  0  0  0
  6 44  1  0  0  0  0
  6 45  1  0  0  0  0
  7 46  1  0  0  0  0
  7 47  1  0  0  0  0
  8 48  1  0  0  0  0
  8 49  1  0  0  0  0
  9 50  1  0  0  0  0
  9 51  1  0  0  0  0
 11 52  1  0  0  0  0
 13 53  1  0  0  0  0
 14 54  1  0  0  0  0
 15 55  1  0  0  0  0
 16 56  1  0  0  0  0
 20 57  1  0  0  0  0
 20 58  1  0  0  0  0
 21 59  1  0  0  0  0
 21 60  1  0  0  0  0
 22 61  1  0  0  0  0
 22 62  1  0  0  0  0
 23 63  1  0  0  0  0
 23 64  1  0  0  0  0
 24 65  1  0  0  0  0
 24 66  1  0  0  0  0
 25 67  1  0  0  0  0
 25 68  1  0  0  0  0
 26 69  1  0  0  0  0
 26 70  1  0  0  0  0
 27 71  1  0  0  0  0
 27 72  1  0  0  0  0
 28 73  1  0  0  0  0
 28 74  1  0  0  0  0
 28 75  1  0  0  0  0
 30 76  1  0  0  0  0
M  END
> <id>
798150

> <casrn>
25322-17-2

> <smiles (First)>
CCCCCCCCCc1cc2ccccc2c(c1CCCCCCCCC)[S](O)(=O)=O

> <Molecular weight>
460.712158203125

> <name>
Dinonylnaphthalenesulfonic acid

> <Outcome>
0

> <Molecule (RDKit Mol) (InChI Code)>
InChI=1S/C28H44O3S/c1-3-5-7-9-11-13-15-19-24-23-25-20-17-18-22-27(25)28(32(29,30)31)26(24)21-16-14-12-10-8-6-4-2/h17-18,20,22-23H,3-16,19,21H2,1-2H3,(H,29,30,31)

> <reference>
ToxValDB

> <molecule_form>
not specified

$$$$

  Mrv1812 01171911372D          

 23 24  0  0  0  0            999 V2000
    0.8679    2.8126    0.0000 Br  0  0  0  0  0  0  0  0  0  0  0  0
    0.1534    2.4001    0.0000 C   0  0  0  0  0  0  0  0  0  0  0  0
   -0.5610    2.8126    0.0000 C   0  0  0  0  0  0  0  0  0  0  0  0
   -0.5610    3.6376    0.0000 Br  0  0  0  0  0  0  0  0  0  0  0  0
   -1.2755    2.4001    0.0000 C   0  0  0  0  0  0  0  0  0  0  0  0
   -1.9900    2.8126    0.0000 Br  0  0  0  0  0  0  0  0  0  0  0  0
   -1.2755    1.5751    0.0000 C   0  0  0  0  0  0  0  0  0  0  0  0
   -1.9900    1.1626    0.0000 O   0  0  0  0  0  0  0  0  0  0  0  0
   -1.9900    0.3376    0.0000 C   0  0  0  0  0  0  0  0  0  0  0  0
   -2.7045   -0.0749    0.0000 C   0  0  0  0  0  0  0  0  0  0  0  0
   -3.4189    0.3376    0.0000 Br  0  0  0  0  0  0  0  0  0  0  0  0
   -2.7045   -0.8999    0.0000 C   0  0  0  0  0  0  0  0  0  0  0  0
   -3.4189   -1.3124    0.0000 Br  0  0  0  0  0  0  0  0  0  0  0  0
   -1.9900   -1.3124    0.0000 C   0  0  0  0  0  0  0  0  0  0  0  0
   -1.9900   -2.1374    0.0000 Br  0  0  0  0  0  0  0  0  0  0  0  0
   -1.2755   -0.8999    0.0000 C   0  0  0  0  0  0  0  0  0  0  0  0
   -0.5610   -1.3124    0.0000 Br  0  0  0  0  0  0  0  0  0  0  0  0
   -1.2755   -0.0749    0.0000 C   0  0  0  0  0  0  0  0  0  0  0  0
   -0.5610    0.3376    0.0000 Br  0  0  0  0  0  0  0  0  0  0  0  0
   -0.5610    1.1626    0.0000 C   0  0  0  0  0  0  0  0  0  0  0  0
   -0.0761    0.4952    0.0000 Br  0  0  0  0  0  0  0  0  0  0  0  0
    0.1534    1.5751    0.0000 C   0  0  0  0  0  0  0  0  0  0  0  0
    0.8679    1.1626    0.0000 Br  0  0  0  0  0  0  0  0  0  0  0  0
  1  2  1  0  0  0  0
  3  2  4  0  0  0  0
  3  4  1  0  0  0  0
  5  3  4  0  0  0  0
  5  6  1  0  0  0  0
  7  5  4  0  0  0  0
  7  8  1  0  0  0  0
  8  9  1  0  0  0  0
 10  9  4  0  0  0  0
 10 11  1  0  0  0  0
 12 10  4  0  0  0  0
 12 13  1  0  0  0  0
 14 12  4  0  0  0  0
 14 15  1  0  0  0  0
 16 14  4  0  0  0  0
 16 17  1  0  0  0  0
 18 16  4  0  0  0  0
 18 19  1  0  0  0  0
 20  7  4  0  0  0  0
 20 21  1  0  0  0  0
 22 20  4  0  0  0  0
 22 23  1  0  0  0  0
  2 22  4  0  0  0  0
  9 18  4  0  0  0  0
M  END
> <id>
212156

> <casrn>
1163-19-5

> <smiles (First)>
Brc1c(Br)c(Br)c(Oc2c(Br)c(Br)c(Br)c(Br)c2Br)c(Br)c1Br

> <Molecular weight>
959.1677856445312

> <name>
1,1-Oxybis[2,3,4,5,6-pentabromobenzene]

> <Outcome>
0

> <Molecule (RDKit Mol) (InChI Code)>
InChI=1S/C12Br10O/c13-1-3(15)7(19)11(8(20)4(1)16)23-12-9(21)5(17)2(14)6(18)10(12)22

> <reference>
ToxValDB

> <molecule_form>
not specified

$$$$

  Mrv1812 01171911372D          

 16 15  0  0  0  0            999 V2000
    1.3723   -0.7806    0.0000 C   0  0  0  0  0  0  0  0  0  0  0  0
    0.9598   -0.0661    0.0000 O   0  0  0  0  0  0  0  0  0  0  0  0
    0.1348   -0.0661    0.0000 B   0  0  0  0  0  0  0  0  0  0  0  0
   -0.2777    0.6483    0.0000 O   0  0  0  0  0  0  0  0  0  0  0  0
   -1.1027    0.6483    0.0000 C   0  0  0  0  0  0  0  0  0  0  0  0
   -0.2777   -0.7806    0.0000 O   0  0  0  0  0  0  0  0  0  0  0  0
   -1.1027   -0.7806    0.0000 C   0  0  0  0  0  0  0  0  0  0  0  0
    0.6578   -1.1931    0.0000 H   0  0  0  0  0  0  0  0  0  0  0  0
    1.7848   -1.4951    0.0000 H   0  0  0  0  0  0  0  0  0  0  0  0
    2.0868   -0.3681    0.0000 H   0  0  0  0  0  0  0  0  0  0  0  0
   -1.1027    1.4733    0.0000 H   0  0  0  0  0  0  0  0  0  0  0  0
   -1.9277    0.6483    0.0000 H   0  0  0  0  0  0  0  0  0  0  0  0
   -1.1027   -0.1767    0.0000 H   0  0  0  0  0  0  0  0  0  0  0  0
   -1.8649   -0.4649    0.0000 H   0  0  0  0  0  0  0  0  0  0  0  0
   -1.6861   -1.3640    0.0000 H   0  0  0  0  0  0  0  0  0  0  0  0
   -0.7870   -1.5428    0.0000 H   0  0  0  0  0  0  0  0  0  0  0  0
  1  2  1  0  0  0  0
  2  3  1  0  0  0  0
  3  4  1  0  0  0  0
  4  5  1  0  0  0  0
  3  6  1  0  0  0  0
  6  7  1  0  0  0  0
  1  8  1  0  0  0  0
  1  9  1  0  0  0  0
  1 10  1  0  0  0  0
  5 11  1  0  0  0  0
  5 12  1  0  0  0  0
  5 13  1  0  0  0  0
  7 14  1  0  0  0  0
  7 15  1  0  0  0  0
  7 16  1  0  0  0  0
M  END
> <id>
217661; 217750

> <casrn>
121-43-7

> <smiles (First)>
COB(OC)OC

> <Molecular weight>
103.91276550292969

> <name>
Trimethyl borate

> <Outcome>
0

> <Molecule (RDKit Mol) (InChI Code)>
InChI=1S/C3H9BO3/c1-5-4(6-2)7-3/h1-3H3

> <reference>
ToxValDB

> <molecule_form>
not specified

$$$$

  Mrv1812 01171911372D          

 16 15  0  0  0  0            999 V2000
    0.0000   -0.0022    0.0000 C   0  0  0  0  0  0  0  0  0  0  0  0
    0.7145    0.4103    0.0000 O   0  0  0  0  0  0  0  0  0  0  0  0
    1.4290   -0.0022    0.0000 C   0  0  0  0  0  0  0  0  0  0  0  0
    1.4290   -0.8272    0.0000 O   0  0  0  0  0  0  0  0  0  0  0  0
    2.1435    0.4103    0.0000 C   0  0  0  0  0  0  0  0  0  0  0  0
    2.8579   -0.0022    0.0000 C   0  0  0  0  0  0  0  0  0  0  0  0
    3.5724    0.4103    0.0000 C   0  0  0  0  0  0  0  0  0  0  0  0
    2.8579   -0.8272    0.0000 O   0  0  0  0  0  0  0  0  0  0  0  0
   -0.4125    0.7123    0.0000 H   0  0  0  0  0  0  0  0  0  0  0  0
   -0.7144   -0.4147    0.0000 H   0  0  0  0  0  0  0  0  0  0  0  0
    0.4125   -0.7167    0.0000 H   0  0  0  0  0  0  0  0  0  0  0  0
    2.5137    1.1475    0.0000 H   0  0  0  0  0  0  0  0  0  0  0  0
    1.7732    1.1475    0.0000 H   0  0  0  0  0  0  0  0  0  0  0  0
    3.9849   -0.3042    0.0000 H   0  0  0  0  0  0  0  0  0  0  0  0
    4.2869    0.8228    0.0000 H   0  0  0  0  0  0  0  0  0  0  0  0
    3.1599    1.1248    0.0000 H   0  0  0  0  0  0  0  0  0  0  0  0
  1  2  1  0  0  0  0
  2  3  1  0  0  0  0
  3  4  2  0  0  0  0
  3  5  1  0  0  0  0
  5  6  1  0  0  0  0
  6  7  1  0  0  0  0
  6  8  2  0  0  0  0
  1  9  1  0  0  0  0
  1 10  1  0  0  0  0
  1 11  1  0  0  0  0
  5 12  1  0  0  0  0
  5 13  1  0  0  0  0
  7 14  1  0  0  0  0
  7 15  1  0  0  0  0
  7 16  1  0  0  0  0
M  END
> <id>
200168

> <casrn>
105-45-3

> <smiles (First)>
COC(=O)CC(C)=O

> <Molecular weight>
116.11521911621094

> <name>
Methyl acetoacetate

> <Outcome>
0

> <Molecule (RDKit Mol) (InChI Code)>
InChI=1S/C5H8O3/c1-4(6)3-5(7)8-2/h3H2,1-2H3

> <reference>
ToxValDB

> <molecule_form>
not specified

$$$$

  Mrv1812 01171911372D          

  4  3  0  0  0  0            999 V2000
    0.0000    0.0000    0.0000 C   0  0  0  0  0  0  0  0  0  0  0  0
   -0.8250    0.0000    0.0000 O   0  0  0  0  0  0  0  0  0  0  0  0
    0.4125   -0.7145    0.0000 H   0  0  0  0  0  0  0  0  0  0  0  0
    0.4125    0.7145    0.0000 H   0  0  0  0  0  0  0  0  0  0  0  0
  1  2  2  0  0  0  0
  1  3  1  0  0  0  0
  1  4  1  0  0  0  0
M  END
> <id>
900850

> <casrn>
50-00-0

> <smiles (First)>
C=O

> <Molecular weight>
30.02597999572754

> <name>
Formaldehyde

> <Outcome>
1

> <Molecule (RDKit Mol) (InChI Code)>
InChI=1S/CH2O/c1-2/h1H2

> <reference>
ToxValDB

> <molecule_form>
not specified

$$$$

  Mrv1812 01171911372D          

  8  7  0  0  0  0            999 V2000
    1.3885   -0.1510    0.0000 Cl  0  0  0  0  0  0  0  0  0  0  0  0
    0.5635   -0.1510    0.0000 C   0  0  0  0  0  0  0  0  0  0  0  0
    0.1510    0.5635    0.0000 C   0  0  0  0  0  0  0  0  0  0  0  0
   -0.6740    0.5635    0.0000 Cl  0  0  0  0  0  0  0  0  0  0  0  0
   -0.1258   -0.6043    0.0000 H   0  0  0  0  0  0  0  0  0  0  0  0
    0.5155   -0.9746    0.0000 H   0  0  0  0  0  0  0  0  0  0  0  0
    0.8403    1.0168    0.0000 H   0  0  0  0  0  0  0  0  0  0  0  0
    0.1990    1.3871    0.0000 H   0  0  0  0  0  0  0  0  0  0  0  0
  1  2  1  0  0  0  0
  2  3  1  0  0  0  0
  3  4  1  0  0  0  0
  2  5  1  0  0  0  0
  2  6  1  0  0  0  0
  3  7  1  0  0  0  0
  3  8  1  0  0  0  0
M  END
> <id>
962601

> <casrn>
107-06-2

> <smiles (First)>
ClCCCl

> <Molecular weight>
98.95915985107422

> <name>
1,2-Dichloroethane

> <Outcome>
1

> <Molecule (RDKit Mol) (InChI Code)>
InChI=1S/C2H4Cl2/c3-1-2-4/h1-2H2

> <reference>
ToxValDB

> <molecule_form>
not specified

$$$$

  Mrv1812 01171911372D          

 13 13  0  0  0  0            999 V2000
    1.4227    0.7383    0.0000 O   0  0  0  0  0  0  0  0  0  0  0  0
    0.7082    0.3258    0.0000 C   0  0  0  0  0  0  0  0  0  0  0  0
   -0.0062    0.7383    0.0000 C   0  0  0  0  0  0  0  0  0  0  0  0
   -0.7207    0.3258    0.0000 C   0  0  0  0  0  0  0  0  0  0  0  0
   -0.7207   -0.4992    0.0000 C   0  0  0  0  0  0  0  0  0  0  0  0
   -1.4352   -0.9117    0.0000 Cl  0  0  0  0  0  0  0  0  0  0  0  0
   -0.0062   -0.9117    0.0000 C   0  0  0  0  0  0  0  0  0  0  0  0
    0.7082   -0.4992    0.0000 C   0  0  0  0  0  0  0  0  0  0  0  0
    2.1372    0.3258    0.0000 H   0  0  0  0  0  0  0  0  0  0  0  0
   -0.0062    1.5633    0.0000 H   0  0  0  0  0  0  0  0  0  0  0  0
   -1.4352    0.7383    0.0000 H   0  0  0  0  0  0  0  0  0  0  0  0
   -0.0062   -1.7367    0.0000 H   0  0  0  0  0  0  0  0  0  0  0  0
    1.4227   -0.9117    0.0000 H   0  0  0  0  0  0  0  0  0  0  0  0
  1  2  1  0  0  0  0
  3  2  4  0  0  0  0
  4  3  4  0  0  0  0
  5  4  4  0  0  0  0
  5  6  1  0  0  0  0
  7  5  4  0  0  0  0
  8  7  4  0  0  0  0
  2  8  4  0  0  0  0
  1  9  1  0  0  0  0
  3 10  1  0  0  0  0
  4 11  1  0  0  0  0
  7 12  1  0  0  0  0
  8 13  1  0  0  0  0
M  END
> <id>
201267; 201279

> <casrn>
106-48-9

> <smiles (First)>
Oc1ccc(Cl)cc1

> <Molecular weight>
128.55630493164062

> <name>
4-Chlorophenol

> <Outcome>
0

> <Molecule (RDKit Mol) (InChI Code)>
InChI=1S/C6H5ClO/c7-5-1-3-6(8)4-2-5/h1-4,8H

> <reference>
ToxValDB

> <molecule_form>
not specified

$$$$

  Mrv1812 01171911372D          

 13 13  0  0  0  0            999 V2000
    0.7140    0.1661    0.0000 C   0  0  0  0  0  0  0  0  0  0  0  0
    0.0466    0.6510    0.0000 C   0  0  0  0  0  0  0  0  0  0  0  0
   -0.6208    0.1661    0.0000 C   0  0  0  0  0  0  0  0  0  0  0  0
   -0.3659   -0.6185    0.0000 O   0  0  0  0  0  0  0  0  0  0  0  0
    0.4591   -0.6185    0.0000 C   0  0  0  0  0  0  0  0  0  0  0  0
    1.5265    0.0228    0.0000 H   0  0  0  0  0  0  0  0  0  0  0  0
    1.2871    0.7596    0.0000 H   0  0  0  0  0  0  0  0  0  0  0  0
    0.4339    1.3795    0.0000 H   0  0  0  0  0  0  0  0  0  0  0  0
   -0.3407    1.3795    0.0000 H   0  0  0  0  0  0  0  0  0  0  0  0
   -1.1939    0.7596    0.0000 H   0  0  0  0  0  0  0  0  0  0  0  0
   -1.4333    0.0228    0.0000 H   0  0  0  0  0  0  0  0  0  0  0  0
    0.5739   -1.4355    0.0000 H   0  0  0  0  0  0  0  0  0  0  0  0
    1.2006   -0.9802    0.0000 H   0  0  0  0  0  0  0  0  0  0  0  0
  2  1  1  0  0  0  0
  3  2  1  0  0  0  0
  4  3  1  0  0  0  0
  5  4  1  0  0  0  0
  1  5  1  0  0  0  0
  1  6  1  0  0  0  0
  1  7  1  0  0  0  0
  2  8  1  0  0  0  0
  2  9  1  0  0  0  0
  3 10  1  0  0  0  0
  3 11  1  0  0  0  0
  5 12  1  0  0  0  0
  5 13  1  0  0  0  0
M  END
> <id>
205885

> <casrn>
109-99-9

> <smiles (First)>
C1CCOC1

> <Molecular weight>
72.10572052001953

> <name>
Tetrahydrofuran

> <Outcome>
0

> <Molecule (RDKit Mol) (InChI Code)>
InChI=1S/C4H8O/c1-2-4-5-3-1/h1-4H2

> <reference>
ToxValDB

> <molecule_form>
not specified

$$$$

  Mrv1812 01171911372D          

 45 45  0  0  0  0            999 V2000
   -1.1654   -1.8567    0.0000 C   0  0  0  0  0  0  0  0  0  0  0  0
   -0.4509   -1.4442    0.0000 C   0  0  0  0  0  0  0  0  0  0  0  0
    0.2635   -1.8567    0.0000 C   0  0  0  0  0  0  0  0  0  0  0  0
    0.9780   -1.4442    0.0000 C   0  0  0  0  0  0  0  0  0  0  0  0
    1.6925   -1.8567    0.0000 C   0  0  0  0  0  0  0  0  0  0  0  0
    2.4069   -1.4442    0.0000 C   0  0  0  0  0  0  0  0  0  0  0  0
    3.1214   -1.8567    0.0000 C   0  0  0  0  0  0  0  0  0  0  0  0
    3.8359   -1.4442    0.0000 C   0  0  0  0  0  0  0  0  0  0  0  0
    4.5504   -1.8567    0.0000 C   0  0  0  0  0  0  0  0  0  0  0  0
    5.2648   -1.4442    0.0000 C   0  0  0  0  0  0  0  0  0  0  0  0
    5.9793   -1.8567    0.0000 C   0  0  0  0  0  0  0  0  0  0  0  0
    6.6938   -1.4442    0.0000 C   0  0  0  0  0  0  0  0  0  0  0  0
    7.4082   -1.8567    0.0000 C   0  0  0  0  0  0  0  0  0  0  0  0
    8.1227   -1.4442    0.0000 C   0  0  0  0  0  0  0  0  0  0  0  0
    8.1227   -0.6192    0.0000 C   0  0  0  0  0  0  0  0  0  0  0  0
    7.4082   -0.2067    0.0000 C   0  0  0  0  0  0  0  0  0  0  0  0
    6.6938   -0.6192    0.0000 C   0  0  0  0  0  0  0  0  0  0  0  0
   -1.5779   -1.1422    0.0000 H   0  0  0  0  0  0  0  0  0  0  0  0
   -1.8799   -2.2692    0.0000 H   0  0  0  0  0  0  0  0  0  0  0  0
   -0.7529   -2.5712    0.0000 H   0  0  0  0  0  0  0  0  0  0  0  0
   -0.0807   -0.7070    0.0000 H   0  0  0  0  0  0  0  0  0  0  0  0
   -0.8212   -0.7070    0.0000 H   0  0  0  0  0  0  0  0  0  0  0  0
   -0.1067   -2.5939    0.0000 H   0  0  0  0  0  0  0  0  0  0  0  0
    0.6338   -2.5939    0.0000 H   0  0  0  0  0  0  0  0  0  0  0  0
    1.3483   -0.7070    0.0000 H   0  0  0  0  0  0  0  0  0  0  0  0
    0.6077   -0.7070    0.0000 H   0  0  0  0  0  0  0  0  0  0  0  0
    1.3222   -2.5939    0.0000 H   0  0  0  0  0  0  0  0  0  0  0  0
    2.0627   -2.5939    0.0000 H   0  0  0  0  0  0  0  0  0  0  0  0
    2.7772   -0.7070    0.0000 H   0  0  0  0  0  0  0  0  0  0  0  0
    2.0367   -0.7070    0.0000 H   0  0  0  0  0  0  0  0  0  0  0  0
    2.7512   -2.5939    0.0000 H   0  0  0  0  0  0  0  0  0  0  0  0
    3.4917   -2.5939    0.0000 H   0  0  0  0  0  0  0  0  0  0  0  0
    4.2061   -0.7070    0.0000 H   0  0  0  0  0  0  0  0  0  0  0  0
    3.4656   -0.7070    0.0000 H   0  0  0  0  0  0  0  0  0  0  0  0
    4.1801   -2.5939    0.0000 H   0  0  0  0  0  0  0  0  0  0  0  0
    4.9206   -2.5939    0.0000 H   0  0  0  0  0  0  0  0  0  0  0  0
    5.6351   -0.7070    0.0000 H   0  0  0  0  0  0  0  0  0  0  0  0
    4.8946   -0.7070    0.0000 H   0  0  0  0  0  0  0  0  0  0  0  0
    5.6090   -2.5939    0.0000 H   0  0  0  0  0  0  0  0  0  0  0  0
    6.3496   -2.5939    0.0000 H   0  0  0  0  0  0  0  0  0  0  0  0
    7.4082   -2.6817    0.0000 H   0  0  0  0  0  0  0  0  0  0  0  0
    8.8372   -1.8567    0.0000 H   0  0  0  0  0  0  0  0  0  0  0  0
    8.8372   -0.2067    0.0000 H   0  0  0  0  0  0  0  0  0  0  0  0
    7.4082    0.6183    0.0000 H   0  0  0  0  0  0  0  0  0  0  0  0
    5.9793   -0.2067    0.0000 H   0  0  0  0  0  0  0  0  0  0  0  0
  1  2  1  0  0  0  0
  2  3  1  0  0  0  0
  3  4  1  0  0  0  0
  4  5  1  0  0  0  0
  5  6  1  0  0  0  0
  6  7  1  0  0  0  0
  7  8  1  0  0  0  0
  8  9  1  0  0  0  0
  9 10  1  0  0  0  0
 10 11  1  0  0  0  0
 11 12  1  0  0  0  0
 13 12  4  0  0  0  0
 14 13  4  0  0  0  0
 15 14  4  0  0  0  0
 16 15  4  0  0  0  0
 17 16  4  0  0  0  0
 12 17  4  0  0  0  0
  1 18  1  0  0  0  0
  1 19  1  0  0  0  0
  1 20  1  0  0  0  0
  2 21  1  0  0  0  0
  2 22  1  0  0  0  0
  3 23  1  0  0  0  0
  3 24  1  0  0  0  0
  4 25  1  0  0  0  0
  4 26  1  0  0  0  0
  5 27  1  0  0  0  0
  5 28  1  0  0  0  0
  6 29  1  0  0  0  0
  6 30  1  0  0  0  0
  7 31  1  0  0  0  0
  7 32  1  0  0  0  0
  8 33  1  0  0  0  0
  8 34  1  0  0  0  0
  9 35  1  0  0  0  0
  9 36  1  0  0  0  0
 10 37  1  0  0  0  0
 10 38  1  0  0  0  0
 11 39  1  0  0  0  0
 11 40  1  0  0  0  0
 13 41  1  0  0  0  0
 14 42  1  0  0  0  0
 15 43  1  0  0  0  0
 16 44  1  0  0  0  0
 17 45  1  0  0  0  0
M  END
> <id>
802523; 802674

> <casrn>
67774-74-7

> <smiles (First)>
CCCCCCCCCCCc1ccccc1

> <Molecular weight>
232.4042205810547

> <name>
Benzene, C10-13-alkyl derivs.

> <Outcome>
0

> <Molecule (RDKit Mol) (InChI Code)>
InChI=1S/C17H28/c1-2-3-4-5-6-7-8-9-11-14-17-15-12-10-13-16-17/h10,12-13,15-16H,2-9,11,14H2,1H3

> <reference>
ToxValDB

> <molecule_form>
not specified

$$$$

  Mrv1812 01171911372D          

 15 14  0  0  0  0            999 V2000
    1.8472   -0.6905    0.0000 N   0  0  0  0  0  0  0  0  0  0  0  0
    1.4347    0.0240    0.0000 C   0  0  0  0  0  0  0  0  0  0  0  0
    0.6097    0.0240    0.0000 C   0  0  0  0  0  0  0  0  0  0  0  0
    0.1972    0.7385    0.0000 C   0  0  0  0  0  0  0  0  0  0  0  0
   -0.6278    0.7385    0.0000 N   0  0  0  0  0  0  0  0  0  0  0  0
    1.4347   -1.4050    0.0000 H   0  0  0  0  0  0  0  0  0  0  0  0
    2.6722   -0.6905    0.0000 H   0  0  0  0  0  0  0  0  0  0  0  0
    2.1240    0.4773    0.0000 H   0  0  0  0  0  0  0  0  0  0  0  0
    1.4827    0.8476    0.0000 H   0  0  0  0  0  0  0  0  0  0  0  0
   -0.0796   -0.4294    0.0000 H   0  0  0  0  0  0  0  0  0  0  0  0
    0.5617   -0.7996    0.0000 H   0  0  0  0  0  0  0  0  0  0  0  0
    0.8865    1.1918    0.0000 H   0  0  0  0  0  0  0  0  0  0  0  0
    0.2452    1.5621    0.0000 H   0  0  0  0  0  0  0  0  0  0  0  0
   -1.0403    1.4529    0.0000 H   0  0  0  0  0  0  0  0  0  0  0  0
   -1.0403    0.0240    0.0000 H   0  0  0  0  0  0  0  0  0  0  0  0
  1  2  1  0  0  0  0
  2  3  1  0  0  0  0
  3  4  1  0  0  0  0
  4  5  1  0  0  0  0
  1  6  1  0  0  0  0
  1  7  1  0  0  0  0
  2  8  1  0  0  0  0
  2  9  1  0  0  0  0
  3 10  1  0  0  0  0
  3 11  1  0  0  0  0
  4 12  1  0  0  0  0
  4 13  1  0  0  0  0
  5 14  1  0  0  0  0
  5 15  1  0  0  0  0
M  END
> <id>
205586

> <casrn>
109-76-2

> <smiles (First)>
NCCCN

> <Molecular weight>
74.1249008178711

> <name>
1,3-Diaminopropane

> <Outcome>
1

> <Molecule (RDKit Mol) (InChI Code)>
InChI=1S/C3H10N2/c4-2-1-3-5/h1-5H2

> <reference>
ToxValDB

> <molecule_form>
not specified

$$$$

  Mrv1812 01171911372D          

 12 11  0  0  0  0            999 V2000
    2.5288   -0.7762    0.0000 Cl  0  0  0  0  0  0  0  0  0  0  0  0
    2.1163   -0.0618    0.0000 C   0  0  0  0  0  0  0  0  0  0  0  0
    1.2913   -0.0618    0.0000 C   0  0  0  0  0  0  0  0  0  0  0  0
    0.8788   -0.7762    0.0000 Cl  0  0  0  0  0  0  0  0  0  0  0  0
    0.8788    0.6527    0.0000 C   0  0  0  0  0  0  0  0  0  0  0  0
    0.0538    0.6527    0.0000 C   0  0  0  0  0  0  0  0  0  0  0  0
    2.8055    0.3916    0.0000 H   0  0  0  0  0  0  0  0  0  0  0  0
    2.1642    0.7618    0.0000 H   0  0  0  0  0  0  0  0  0  0  0  0
    1.7038   -0.7762    0.0000 H   0  0  0  0  0  0  0  0  0  0  0  0
    1.2913    1.3672    0.0000 H   0  0  0  0  0  0  0  0  0  0  0  0
   -0.3587    1.3672    0.0000 H   0  0  0  0  0  0  0  0  0  0  0  0
   -0.3587   -0.0618    0.0000 H   0  0  0  0  0  0  0  0  0  0  0  0
  1  2  1  0  0  0  0
  2  3  1  0  0  0  0
  3  4  1  0  0  0  0
  3  5  1  0  0  0  0
  5  6  2  0  0  0  0
  2  7  1  0  0  0  0
  2  8  1  0  0  0  0
  3  9  1  0  0  0  0
  5 10  1  0  0  0  0
  6 11  1  0  0  0  0
  6 12  1  0  0  0  0
M  END
> <id>
316435

> <casrn>
760-23-6

> <smiles (First)>
ClCC(Cl)C=C

> <Molecular weight>
124.9964370727539

> <name>
3,4-Dichloro-1-butene

> <Outcome>
1

> <Molecule (RDKit Mol) (InChI Code)>
InChI=1S/C4H6Cl2/c1-2-4(6)3-5/h2,4H,1,3H2

> <reference>
ToxValDB

> <molecule_form>
not specified

$$$$

  Mrv1812 01171911372D          

 19 19  0  0  0  0            999 V2000
    2.2323    0.0058    0.0000 C   0  0  0  0  0  0  0  0  0  0  0  0
    1.5178    0.4183    0.0000 C   0  0  0  0  0  0  0  0  0  0  0  0
    1.5178    1.2433    0.0000 C   0  0  0  0  0  0  0  0  0  0  0  0
    0.8033    0.0058    0.0000 C   0  0  0  0  0  0  0  0  0  0  0  0
    0.0888    0.4183    0.0000 C   0  0  0  0  0  0  0  0  0  0  0  0
   -0.6256    0.0058    0.0000 C   0  0  0  0  0  0  0  0  0  0  0  0
   -0.6256   -0.8192    0.0000 C   0  0  0  0  0  0  0  0  0  0  0  0
    0.0888   -1.2317    0.0000 C   0  0  0  0  0  0  0  0  0  0  0  0
    0.8033   -0.8192    0.0000 C   0  0  0  0  0  0  0  0  0  0  0  0
    1.8198   -0.7087    0.0000 H   0  0  0  0  0  0  0  0  0  0  0  0
    2.9467   -0.4067    0.0000 H   0  0  0  0  0  0  0  0  0  0  0  0
    2.6448    0.7203    0.0000 H   0  0  0  0  0  0  0  0  0  0  0  0
    2.2323    1.6558    0.0000 H   0  0  0  0  0  0  0  0  0  0  0  0
    0.8033    1.6558    0.0000 H   0  0  0  0  0  0  0  0  0  0  0  0
    0.0888    1.2433    0.0000 H   0  0  0  0  0  0  0  0  0  0  0  0
   -1.3401    0.4183    0.0000 H   0  0  0  0  0  0  0  0  0  0  0  0
   -1.3401   -1.2317    0.0000 H   0  0  0  0  0  0  0  0  0  0  0  0
    0.0888   -2.0567    0.0000 H   0  0  0  0  0  0  0  0  0  0  0  0
    1.5178   -1.2317    0.0000 H   0  0  0  0  0  0  0  0  0  0  0  0
  1  2  1  0  0  0  0
  2  3  2  0  0  0  0
  2  4  1  0  0  0  0
  5  4  4  0  0  0  0
  6  5  4  0  0  0  0
  7  6  4  0  0  0  0
  8  7  4  0  0  0  0
  9  8  4  0  0  0  0
  4  9  4  0  0  0  0
  1 10  1  0  0  0  0
  1 11  1  0  0  0  0
  1 12  1  0  0  0  0
  3 13  1  0  0  0  0
  3 14  1  0  0  0  0
  5 15  1  0  0  0  0
  6 16  1  0  0  0  0
  7 17  1  0  0  0  0
  8 18  1  0  0  0  0
  9 19  1  0  0  0  0
M  END
> <id>
354103; 902194

> <casrn>
98-83-9

> <smiles (First)>
CC(=C)c1ccccc1

> <Molecular weight>
118.17570495605469

> <name>
alpha-Methylstyrene

> <Outcome>
0

> <Molecule (RDKit Mol) (InChI Code)>
InChI=1S/C9H10/c1-8(2)9-6-4-3-5-7-9/h3-7H,1H2,2H3

> <reference>
ToxValDB

> <molecule_form>
not specified

$$$$

  Mrv1812 01171911372D          

 10  9  0  0  0  0            999 V2000
    2.4742    0.0634    0.0000 Cl  0  0  0  0  0  0  0  0  0  0  0  0
    1.6492    0.0634    0.0000 C   0  0  0  0  0  0  0  0  0  0  0  0
    1.2367   -0.6511    0.0000 C   0  0  0  0  0  0  0  0  0  0  0  0
    1.2367    0.7778    0.0000 C   0  0  0  0  0  0  0  0  0  0  0  0
    0.4117    0.7778    0.0000 C   0  0  0  0  0  0  0  0  0  0  0  0
    0.4117   -0.6511    0.0000 H   0  0  0  0  0  0  0  0  0  0  0  0
    1.6492   -1.3656    0.0000 H   0  0  0  0  0  0  0  0  0  0  0  0
    1.6492    1.4923    0.0000 H   0  0  0  0  0  0  0  0  0  0  0  0
   -0.0008    1.4923    0.0000 H   0  0  0  0  0  0  0  0  0  0  0  0
   -0.0008    0.0634    0.0000 H   0  0  0  0  0  0  0  0  0  0  0  0
  1  2  1  0  0  0  0
  2  3  2  0  0  0  0
  2  4  1  0  0  0  0
  4  5  2  0  0  0  0
  3  6  1  0  0  0  0
  3  7  1  0  0  0  0
  4  8  1  0  0  0  0
  5  9  1  0  0  0  0
  5 10  1  0  0  0  0
M  END
> <id>
222567; 222573

> <casrn>
126-99-8

> <smiles (First)>
ClC(=C)C=C

> <Molecular weight>
88.5354995727539

> <name>
Chloroprene

> <Outcome>
0

> <Molecule (RDKit Mol) (InChI Code)>
InChI=1S/C4H5Cl/c1-3-4(2)5/h3H,1-2H2

> <reference>
ToxValDB

> <molecule_form>
not specified

$$$$

  Mrv1812 01171911372D          

  4  3  0  0  0  0            999 V2000
    0.4125    0.7145    0.0000 Cl  0  0  0  0  0  0  0  0  0  0  0  0
    0.0000   -0.0000    0.0000 C   0  0  0  0  0  0  0  0  0  0  0  0
    0.4125   -0.7145    0.0000 Cl  0  0  0  0  0  0  0  0  0  0  0  0
   -0.8250   -0.0000    0.0000 O   0  0  0  0  0  0  0  0  0  0  0  0
  1  2  1  0  0  0  0
  2  3  1  0  0  0  0
  2  4  2  0  0  0  0
M  END
> <id>
917352; 917354; 917355; 917356; 917357; 917358

> <casrn>
75-44-5

> <smiles (First)>
ClC(Cl)=O

> <Molecular weight>
98.91609954833984

> <name>
Phosgene

> <Outcome>
1

> <Molecule (RDKit Mol) (InChI Code)>
InChI=1S/CCl2O/c2-1(3)4

> <reference>
ToxValDB

> <molecule_form>
not specified

$$$$

  Mrv1812 01171911372D          

 39 38  0  0  0  0            999 V2000
    0.1837    0.0211    0.0000 C   0  0  0  0  0  0  0  0  0  0  0  0
    0.8982    0.4336    0.0000 C   0  0  0  0  0  0  0  0  0  0  0  0
    1.6126    0.0211    0.0000 C   0  0  0  0  0  0  0  0  0  0  0  0
    2.3271    0.4336    0.0000 C   0  0  0  0  0  0  0  0  0  0  0  0
    3.0416    0.0211    0.0000 C   0  0  0  0  0  0  0  0  0  0  0  0
    3.7561    0.4336    0.0000 C   0  0  0  0  0  0  0  0  0  0  0  0
    3.7561    1.2586    0.0000 C   0  0  0  0  0  0  0  0  0  0  0  0
    3.0416    1.6711    0.0000 C   0  0  0  0  0  0  0  0  0  0  0  0
    3.0416    2.4961    0.0000 C   0  0  0  0  0  0  0  0  0  0  0  0
    4.4705    0.0211    0.0000 C   0  0  0  0  0  0  0  0  0  0  0  0
    5.1850    0.4336    0.0000 C   0  0  0  0  0  0  0  0  0  0  0  0
    5.8995    0.0211    0.0000 C   0  0  0  0  0  0  0  0  0  0  0  0
    6.6139    0.4336    0.0000 O   0  0  0  0  0  0  0  0  0  0  0  0
   -0.2288    0.7356    0.0000 H   0  0  0  0  0  0  0  0  0  0  0  0
   -0.5308   -0.3914    0.0000 H   0  0  0  0  0  0  0  0  0  0  0  0
    0.5962   -0.6933    0.0000 H   0  0  0  0  0  0  0  0  0  0  0  0
    1.2684    1.1709    0.0000 H   0  0  0  0  0  0  0  0  0  0  0  0
    0.5279    1.1709    0.0000 H   0  0  0  0  0  0  0  0  0  0  0  0
    1.2424   -0.7161    0.0000 H   0  0  0  0  0  0  0  0  0  0  0  0
    1.9829   -0.7161    0.0000 H   0  0  0  0  0  0  0  0  0  0  0  0
    2.6974    1.1709    0.0000 H   0  0  0  0  0  0  0  0  0  0  0  0
    1.9569    1.1709    0.0000 H   0  0  0  0  0  0  0  0  0  0  0  0
    2.6713   -0.7161    0.0000 H   0  0  0  0  0  0  0  0  0  0  0  0
    3.4118   -0.7161    0.0000 H   0  0  0  0  0  0  0  0  0  0  0  0
    3.0416    0.8461    0.0000 H   0  0  0  0  0  0  0  0  0  0  0  0
    4.5797    1.3066    0.0000 H   0  0  0  0  0  0  0  0  0  0  0  0
    4.2094    1.9479    0.0000 H   0  0  0  0  0  0  0  0  0  0  0  0
    2.2538    1.9160    0.0000 H   0  0  0  0  0  0  0  0  0  0  0  0
    3.7561    2.0836    0.0000 H   0  0  0  0  0  0  0  0  0  0  0  0
    3.6249    3.0795    0.0000 H   0  0  0  0  0  0  0  0  0  0  0  0
    2.6291    3.2106    0.0000 H   0  0  0  0  0  0  0  0  0  0  0  0
    2.2447    2.2826    0.0000 H   0  0  0  0  0  0  0  0  0  0  0  0
    4.1003   -0.7161    0.0000 H   0  0  0  0  0  0  0  0  0  0  0  0
    4.8408   -0.7161    0.0000 H   0  0  0  0  0  0  0  0  0  0  0  0
    5.5553    1.1709    0.0000 H   0  0  0  0  0  0  0  0  0  0  0  0
    4.8147    1.1709    0.0000 H   0  0  0  0  0  0  0  0  0  0  0  0
    5.5292   -0.7161    0.0000 H   0  0  0  0  0  0  0  0  0  0  0  0
    6.2697   -0.7161    0.0000 H   0  0  0  0  0  0  0  0  0  0  0  0
    7.3284    0.0211    0.0000 H   0  0  0  0  0  0  0  0  0  0  0  0
  1  2  1  0  0  0  0
  2  3  1  0  0  0  0
  3  4  1  0  0  0  0
  4  5  1  0  0  0  0
  5  6  1  0  0  0  0
  6  7  1  0  0  0  0
  7  8  1  0  0  0  0
  8  9  1  0  0  0  0
  6 10  1  0  0  0  0
 10 11  1  0  0  0  0
 11 12  1  0  0  0  0
 12 13  1  0  0  0  0
  1 14  1  0  0  0  0
  1 15  1  0  0  0  0
  1 16  1  0  0  0  0
  2 17  1  0  0  0  0
  2 18  1  0  0  0  0
  3 19  1  0  0  0  0
  3 20  1  0  0  0  0
  4 21  1  0  0  0  0
  4 22  1  0  0  0  0
  5 23  1  0  0  0  0
  5 24  1  0  0  0  0
  6 25  1  0  0  0  0
  7 26  1  0  0  0  0
  7 27  1  0  0  0  0
  8 28  1  0  0  0  0
  8 29  1  0  0  0  0
  9 30  1  0  0  0  0
  9 31  1  0  0  0  0
  9 32  1  0  0  0  0
 10 33  1  0  0  0  0
 10 34  1  0  0  0  0
 11 35  1  0  0  0  0
 11 36  1  0  0  0  0
 12 37  1  0  0  0  0
 12 38  1  0  0  0  0
 13 39  1  0  0  0  0
M  END
> <id>
338901

> <casrn>
90604-40-3

> <smiles (First)>
CCCCC[C@H](CCC)CCCO

> <Molecular weight>
186.33424377441406

> <name>
Alcohols, C12-15-branched and linear

> <Outcome>
0

> <Molecule (RDKit Mol) (InChI Code)>
InChI=1S/C12H26O/c1-3-5-6-9-12(8-4-2)10-7-11-13/h12-13H,3-11H2,1-2H3

> <reference>
ToxValDB

> <molecule_form>
not specified

$$$$

  Mrv1812 01171911372D          

 38 37  0  0  0  0            999 V2000
   -2.2235    3.0365    0.0000 C   0  0  0  0  0  0  0  0  0  0  0  0
   -1.5091    3.4490    0.0000 C   0  0  0  0  0  0  0  0  0  0  0  0
   -1.5091    4.2740    0.0000 C   0  0  0  0  0  0  0  0  0  0  0  0
   -0.7946    3.0365    0.0000 O   0  0  0  0  0  0  0  0  0  0  0  0
   -0.0801    3.4490    0.0000 C   0  0  0  0  0  0  0  0  0  0  0  0
   -0.0801    4.2740    0.0000 O   0  0  0  0  0  0  0  0  0  0  0  0
    0.6344    3.0365    0.0000 C   0  0  0  0  0  0  0  0  0  0  0  0
    1.3488    3.4490    0.0000 C   0  0  0  0  0  0  0  0  0  0  0  0
    2.0633    3.0365    0.0000 C   0  0  0  0  0  0  0  0  0  0  0  0
    2.7778    3.4490    0.0000 C   0  0  0  0  0  0  0  0  0  0  0  0
    3.4922    3.0365    0.0000 C   0  0  0  0  0  0  0  0  0  0  0  0
    3.4922    2.2115    0.0000 O   0  0  0  0  0  0  0  0  0  0  0  0
    4.2067    3.4490    0.0000 O   0  0  0  0  0  0  0  0  0  0  0  0
    4.9212    3.0365    0.0000 C   0  0  0  0  0  0  0  0  0  0  0  0
    5.6356    3.4490    0.0000 C   0  0  0  0  0  0  0  0  0  0  0  0
    4.9212    2.2115    0.0000 C   0  0  0  0  0  0  0  0  0  0  0  0
   -2.6360    3.7510    0.0000 H   0  0  0  0  0  0  0  0  0  0  0  0
   -2.9380    2.6240    0.0000 H   0  0  0  0  0  0  0  0  0  0  0  0
   -1.8110    2.3221    0.0000 H   0  0  0  0  0  0  0  0  0  0  0  0
   -2.2235    3.8615    0.0000 H   0  0  0  0  0  0  0  0  0  0  0  0
   -0.7122    4.0605    0.0000 H   0  0  0  0  0  0  0  0  0  0  0  0
   -1.0966    4.9885    0.0000 H   0  0  0  0  0  0  0  0  0  0  0  0
   -2.0924    4.8574    0.0000 H   0  0  0  0  0  0  0  0  0  0  0  0
    0.2641    2.2993    0.0000 H   0  0  0  0  0  0  0  0  0  0  0  0
    1.0046    2.2993    0.0000 H   0  0  0  0  0  0  0  0  0  0  0  0
    1.7191    4.1863    0.0000 H   0  0  0  0  0  0  0  0  0  0  0  0
    0.9786    4.1863    0.0000 H   0  0  0  0  0  0  0  0  0  0  0  0
    1.6930    2.2993    0.0000 H   0  0  0  0  0  0  0  0  0  0  0  0
    2.4336    2.2993    0.0000 H   0  0  0  0  0  0  0  0  0  0  0  0
    3.1480    4.1863    0.0000 H   0  0  0  0  0  0  0  0  0  0  0  0
    2.4075    4.1863    0.0000 H   0  0  0  0  0  0  0  0  0  0  0  0
    4.9212    3.8615    0.0000 H   0  0  0  0  0  0  0  0  0  0  0  0
    5.8492    2.6521    0.0000 H   0  0  0  0  0  0  0  0  0  0  0  0
    6.4606    3.4490    0.0000 H   0  0  0  0  0  0  0  0  0  0  0  0
    5.8492    4.2459    0.0000 H   0  0  0  0  0  0  0  0  0  0  0  0
    4.0962    2.2115    0.0000 H   0  0  0  0  0  0  0  0  0  0  0  0
    4.9212    1.3865    0.0000 H   0  0  0  0  0  0  0  0  0  0  0  0
    5.7462    2.2115    0.0000 H   0  0  0  0  0  0  0  0  0  0  0  0
  1  2  1  0  0  0  0
  2  3  1  0  0  0  0
  2  4  1  0  0  0  0
  4  5  1  0  0  0  0
  5  6  2  0  0  0  0
  5  7  1  0  0  0  0
  7  8  1  0  0  0  0
  8  9  1  0  0  0  0
  9 10  1  0  0  0  0
 10 11  1  0  0  0  0
 11 12  2  0  0  0  0
 11 13  1  0  0  0  0
 13 14  1  0  0  0  0
 14 15  1  0  0  0  0
 14 16  1  0  0  0  0
  1 17  1  0  0  0  0
  1 18  1  0  0  0  0
  1 19  1  0  0  0  0
  2 20  1  0  0  0  0
  3 21  1  0  0  0  0
  3 22  1  0  0  0  0
  3 23  1  0  0  0  0
  7 24  1  0  0  0  0
  7 25  1  0  0  0  0
  8 26  1  0  0  0  0
  8 27  1  0  0  0  0
  9 28  1  0  0  0  0
  9 29  1  0  0  0  0
 10 30  1  0  0  0  0
 10 31  1  0  0  0  0
 14 32  1  0  0  0  0
 15 33  1  0  0  0  0
 15 34  1  0  0  0  0
 15 35  1  0  0  0  0
 16 36  1  0  0  0  0
 16 37  1  0  0  0  0
 16 38  1  0  0  0  0
M  END
> <id>
307169

> <casrn>
6938-94-9

> <smiles (First)>
CC(C)OC(=O)CCCCC(=O)OC(C)C

> <Molecular weight>
230.30068969726562

> <name>
Diisopropyl adipate

> <Outcome>
0

> <Molecule (RDKit Mol) (InChI Code)>
InChI=1S/C12H22O4/c1-9(2)15-11(13)7-5-6-8-12(14)16-10(3)4/h9-10H,5-8H2,1-4H3

> <reference>
ToxValDB

> <molecule_form>
not specified

$$$$

  Mrv1812 01171911372D          

 19 18  0  0  0  0            999 V2000
    1.2981    0.1436    0.0000 C   0  0  0  0  0  0  0  0  0  0  0  0
    0.4731    0.1436    0.0000 S   0  0  0  0  0  0  0  0  0  0  0  0
    0.0606   -0.5709    0.0000 C   0  0  0  0  0  0  0  0  0  0  0  0
   -0.6539   -0.1584    0.0000 C   0  0  0  0  0  0  0  0  0  0  0  0
    0.7750   -0.9834    0.0000 C   0  0  0  0  0  0  0  0  0  0  0  0
   -0.3519   -1.2853    0.0000 C   0  0  0  0  0  0  0  0  0  0  0  0
   -1.1769   -1.2853    0.0000 N   0  0  0  0  0  0  0  0  0  0  0  0
   -1.5894   -1.9998    0.0000 O   0  0  0  0  0  0  0  0  0  0  0  0
    1.2981   -0.6814    0.0000 H   0  0  0  0  0  0  0  0  0  0  0  0
    2.1231    0.1436    0.0000 H   0  0  0  0  0  0  0  0  0  0  0  0
    1.2981    0.9686    0.0000 H   0  0  0  0  0  0  0  0  0  0  0  0
   -0.2414    0.5561    0.0000 H   0  0  0  0  0  0  0  0  0  0  0  0
   -1.3684    0.2541    0.0000 H   0  0  0  0  0  0  0  0  0  0  0  0
   -1.0664   -0.8728    0.0000 H   0  0  0  0  0  0  0  0  0  0  0  0
    0.0606   -1.3959    0.0000 H   0  0  0  0  0  0  0  0  0  0  0  0
    0.7750   -1.8084    0.0000 H   0  0  0  0  0  0  0  0  0  0  0  0
    1.4895   -1.3959    0.0000 H   0  0  0  0  0  0  0  0  0  0  0  0
   -0.4596   -2.1033    0.0000 H   0  0  0  0  0  0  0  0  0  0  0  0
   -2.4144   -1.9998    0.0000 H   0  0  0  0  0  0  0  0  0  0  0  0
  1  2  1  0  0  0  0
  2  3  1  0  0  0  0
  3  4  1  0  0  0  0
  3  5  1  0  0  0  0
  3  6  1  0  0  0  0
  6  7  2  0  0  0  0
  7  8  1  4  0  0  0
  1  9  1  0  0  0  0
  1 10  1  0  0  0  0
  1 11  1  0  0  0  0
  4 12  1  0  0  0  0
  4 13  1  0  0  0  0
  4 14  1  0  0  0  0
  5 15  1  0  0  0  0
  5 16  1  0  0  0  0
  5 17  1  0  0  0  0
  6 18  1  0  0  0  0
  8 19  1  0  0  0  0
M  END
> <id>
803638

> <casrn>
1646-75-9

> <smiles (First)>
CSC(C)(C)\C=N\O

> <Molecular weight>
133.21194458007812

> <name>
Aldicarb oxime

> <Outcome>
1

> <Molecule (RDKit Mol) (InChI Code)>
InChI=1S/C5H11NOS/c1-5(2,8-3)4-6-7/h4,7H,1-3H3

> <reference>
ToxValDB

> <molecule_form>
not specified

$$$$

  Mrv1812 01171911372D          

  6  5  0  0  0  0            999 V2000
    0.5635   -0.1510    0.0000 N   0  0  0  0  0  0  0  0  0  0  0  0
    0.1510    0.5635    0.0000 C   0  0  0  0  0  0  0  0  0  0  0  0
   -0.6740    0.5635    0.0000 O   0  0  0  0  0  0  0  0  0  0  0  0
    0.1510   -0.8655    0.0000 H   0  0  0  0  0  0  0  0  0  0  0  0
    1.3885   -0.1510    0.0000 H   0  0  0  0  0  0  0  0  0  0  0  0
    0.5635    1.2780    0.0000 H   0  0  0  0  0  0  0  0  0  0  0  0
  1  2  1  0  0  0  0
  2  3  2  0  0  0  0
  1  4  1  0  0  0  0
  1  5  1  0  0  0  0
  2  6  1  0  0  0  0
M  END
> <id>
314607

> <casrn>
75-12-7

> <smiles (First)>
NC=O

> <Molecular weight>
45.040618896484375

> <name>
Formamide

> <Outcome>
0

> <Molecule (RDKit Mol) (InChI Code)>
InChI=1S/CH3NO/c2-1-3/h1H,(H2,2,3)

> <reference>
ToxValDB

> <molecule_form>
not specified

$$$$

  Mrv1812 01171911372D          

 22 21  0  0  0  0            999 V2000
    2.9430   -0.7423    0.0000 C   0  0  0  0  0  0  0  0  0  0  0  0
    2.5305   -0.0279    0.0000 C   0  0  0  0  0  0  0  0  0  0  0  0
    1.7055   -0.0279    0.0000 N   0  0  0  0  0  0  0  0  0  0  0  0
    1.2930    0.6866    0.0000 C   0  0  0  0  0  0  0  0  0  0  0  0
    0.4680    0.6866    0.0000 C   0  0  0  0  0  0  0  0  0  0  0  0
    1.2930   -0.7423    0.0000 C   0  0  0  0  0  0  0  0  0  0  0  0
    0.4680   -0.7423    0.0000 C   0  0  0  0  0  0  0  0  0  0  0  0
    2.2285   -1.1548    0.0000 H   0  0  0  0  0  0  0  0  0  0  0  0
    3.3555   -1.4568    0.0000 H   0  0  0  0  0  0  0  0  0  0  0  0
    3.6574   -0.3298    0.0000 H   0  0  0  0  0  0  0  0  0  0  0  0
    3.2198    0.4255    0.0000 H   0  0  0  0  0  0  0  0  0  0  0  0
    2.5784    0.7958    0.0000 H   0  0  0  0  0  0  0  0  0  0  0  0
    1.9823    1.1400    0.0000 H   0  0  0  0  0  0  0  0  0  0  0  0
    1.3409    1.5102    0.0000 H   0  0  0  0  0  0  0  0  0  0  0  0
    0.4680    1.5116    0.0000 H   0  0  0  0  0  0  0  0  0  0  0  0
   -0.3570    0.6866    0.0000 H   0  0  0  0  0  0  0  0  0  0  0  0
    0.4680   -0.1384    0.0000 H   0  0  0  0  0  0  0  0  0  0  0  0
    1.3409   -1.5659    0.0000 H   0  0  0  0  0  0  0  0  0  0  0  0
    1.9823   -1.1957    0.0000 H   0  0  0  0  0  0  0  0  0  0  0  0
   -0.2942   -0.4266    0.0000 H   0  0  0  0  0  0  0  0  0  0  0  0
   -0.1154   -1.3257    0.0000 H   0  0  0  0  0  0  0  0  0  0  0  0
    0.7837   -1.5045    0.0000 H   0  0  0  0  0  0  0  0  0  0  0  0
  1  2  1  0  0  0  0
  2  3  1  0  0  0  0
  3  4  1  0  0  0  0
  4  5  1  0  0  0  0
  3  6  1  0  0  0  0
  6  7  1  0  0  0  0
  1  8  1  0  0  0  0
  1  9  1  0  0  0  0
  1 10  1  0  0  0  0
  2 11  1  0  0  0  0
  2 12  1  0  0  0  0
  4 13  1  0  0  0  0
  4 14  1  0  0  0  0
  5 15  1  0  0  0  0
  5 16  1  0  0  0  0
  5 17  1  0  0  0  0
  6 18  1  0  0  0  0
  6 19  1  0  0  0  0
  7 20  1  0  0  0  0
  7 21  1  0  0  0  0
  7 22  1  0  0  0  0
M  END
> <id>
217827; 935862

> <casrn>
121-44-8

> <smiles (First)>
CCN(CC)CC

> <Molecular weight>
101.19000244140625

> <name>
Triethylamine

> <Outcome>
1

> <Molecule (RDKit Mol) (InChI Code)>
InChI=1S/C6H15N/c1-4-7(5-2)6-3/h4-6H2,1-3H3

> <reference>
ToxValDB

> <molecule_form>
not specified

$$$$

  Mrv1812 01171911372D          

 16 15  0  0  0  0            999 V2000
    0.0000   -0.0022    0.0000 C   0  0  0  0  0  0  0  0  0  0  0  0
    0.7145    0.4103    0.0000 C   0  0  0  0  0  0  0  0  0  0  0  0
    1.4290   -0.0022    0.0000 O   0  0  0  0  0  0  0  0  0  0  0  0
    2.1434    0.4103    0.0000 C   0  0  0  0  0  0  0  0  0  0  0  0
    2.8579   -0.0022    0.0000 C   0  0  0  0  0  0  0  0  0  0  0  0
    3.5724    0.4103    0.0000 O   0  0  0  0  0  0  0  0  0  0  0  0
   -0.4125    0.7123    0.0000 H   0  0  0  0  0  0  0  0  0  0  0  0
   -0.7145   -0.4147    0.0000 H   0  0  0  0  0  0  0  0  0  0  0  0
    0.4125   -0.7167    0.0000 H   0  0  0  0  0  0  0  0  0  0  0  0
    1.0847    1.1475    0.0000 H   0  0  0  0  0  0  0  0  0  0  0  0
    0.3442    1.1475    0.0000 H   0  0  0  0  0  0  0  0  0  0  0  0
    2.5137    1.1475    0.0000 H   0  0  0  0  0  0  0  0  0  0  0  0
    1.7732    1.1475    0.0000 H   0  0  0  0  0  0  0  0  0  0  0  0
    2.4876   -0.7394    0.0000 H   0  0  0  0  0  0  0  0  0  0  0  0
    3.2282   -0.7394    0.0000 H   0  0  0  0  0  0  0  0  0  0  0  0
    4.2868   -0.0022    0.0000 H   0  0  0  0  0  0  0  0  0  0  0  0
  1  2  1  0  0  0  0
  2  3  1  0  0  0  0
  3  4  1  0  0  0  0
  4  5  1  0  0  0  0
  5  6  1  0  0  0  0
  1  7  1  0  0  0  0
  1  8  1  0  0  0  0
  1  9  1  0  0  0  0
  2 10  1  0  0  0  0
  2 11  1  0  0  0  0
  4 12  1  0  0  0  0
  4 13  1  0  0  0  0
  5 14  1  0  0  0  0
  5 15  1  0  0  0  0
  6 16  1  0  0  0  0
M  END
> <id>
206682

> <casrn>
110-80-5

> <smiles (First)>
CCOCCO

> <Molecular weight>
90.12100219726562

> <name>
2-Ethoxyethanol

> <Outcome>
1

> <Molecule (RDKit Mol) (InChI Code)>
InChI=1S/C4H10O2/c1-2-6-4-3-5/h5H,2-4H2,1H3

> <reference>
ToxValDB

> <molecule_form>
not specified

$$$$

  Mrv1812 01171911372D          

 21 20  0  0  0  0            999 V2000
   -0.0341    0.4350    0.0000 C   0  0  0  0  0  0  0  0  0  0  0  0
    0.6804    0.0225    0.0000 C   0  0  0  0  0  0  0  0  0  0  0  0
    1.3949    0.4350    0.0000 C   0  0  0  0  0  0  0  0  0  0  0  0
    2.1093    0.0225    0.0000 C   0  0  0  0  0  0  0  0  0  0  0  0
    2.8238    0.4350    0.0000 C   0  0  0  0  0  0  0  0  0  0  0  0
    3.5383    0.0225    0.0000 C   0  0  0  0  0  0  0  0  0  0  0  0
    4.2528    0.4350    0.0000 O   0  0  0  0  0  0  0  0  0  0  0  0
    0.3784    1.1495    0.0000 H   0  0  0  0  0  0  0  0  0  0  0  0
   -0.7485    0.8475    0.0000 H   0  0  0  0  0  0  0  0  0  0  0  0
   -0.4466   -0.2794    0.0000 H   0  0  0  0  0  0  0  0  0  0  0  0
    0.3101   -0.7147    0.0000 H   0  0  0  0  0  0  0  0  0  0  0  0
    1.0507   -0.7147    0.0000 H   0  0  0  0  0  0  0  0  0  0  0  0
    1.7651    1.1723    0.0000 H   0  0  0  0  0  0  0  0  0  0  0  0
    1.0246    1.1723    0.0000 H   0  0  0  0  0  0  0  0  0  0  0  0
    1.7391   -0.7147    0.0000 H   0  0  0  0  0  0  0  0  0  0  0  0
    2.4796   -0.7147    0.0000 H   0  0  0  0  0  0  0  0  0  0  0  0
    3.1941    1.1723    0.0000 H   0  0  0  0  0  0  0  0  0  0  0  0
    2.4536    1.1723    0.0000 H   0  0  0  0  0  0  0  0  0  0  0  0
    3.1680   -0.7147    0.0000 H   0  0  0  0  0  0  0  0  0  0  0  0
    3.9085   -0.7147    0.0000 H   0  0  0  0  0  0  0  0  0  0  0  0
    4.9672    0.0225    0.0000 H   0  0  0  0  0  0  0  0  0  0  0  0
  1  2  1  0  0  0  0
  2  3  1  0  0  0  0
  3  4  1  0  0  0  0
  4  5  1  0  0  0  0
  5  6  1  0  0  0  0
  6  7  1  0  0  0  0
  1  8  1  0  0  0  0
  1  9  1  0  0  0  0
  1 10  1  0  0  0  0
  2 11  1  0  0  0  0
  2 12  1  0  0  0  0
  3 13  1  0  0  0  0
  3 14  1  0  0  0  0
  4 15  1  0  0  0  0
  4 16  1  0  0  0  0
  5 17  1  0  0  0  0
  5 18  1  0  0  0  0
  6 19  1  0  0  0  0
  6 20  1  0  0  0  0
  7 21  1  0  0  0  0
M  END
> <id>
207657

> <casrn>
111-27-3

> <smiles (First)>
CCCCCCO

> <Molecular weight>
102.17475891113281

> <name>
1-Hexanol

> <Outcome>
0

> <Molecule (RDKit Mol) (InChI Code)>
InChI=1S/C6H14O/c1-2-3-4-5-6-7/h7H,2-6H2,1H3

> <reference>
ToxValDB

> <molecule_form>
not specified

$$$$

  Mrv1812 01171911372D          

 30 29  0  0  0  0            999 V2000
   -0.0001    0.0000    0.0000 C   0  0  0  0  0  0  0  0  0  0  0  0
    0.7144    0.4125    0.0000 C   0  0  0  0  0  0  0  0  0  0  0  0
    1.4288    0.0000    0.0000 C   0  0  0  0  0  0  0  0  0  0  0  0
    2.1433    0.4125    0.0000 C   0  0  0  0  0  0  0  0  0  0  0  0
    2.8578    0.0000    0.0000 C   0  0  0  0  0  0  0  0  0  0  0  0
    3.5723    0.4125    0.0000 C   0  0  0  0  0  0  0  0  0  0  0  0
    4.2867    0.0000    0.0000 C   0  0  0  0  0  0  0  0  0  0  0  0
    5.0012    0.4125    0.0000 C   0  0  0  0  0  0  0  0  0  0  0  0
    5.7157    0.0000    0.0000 C   0  0  0  0  0  0  0  0  0  0  0  0
    6.4301    0.4125    0.0000 O   0  0  0  0  0  0  0  0  0  0  0  0
   -0.4126    0.7145    0.0000 H   0  0  0  0  0  0  0  0  0  0  0  0
   -0.7146   -0.4125    0.0000 H   0  0  0  0  0  0  0  0  0  0  0  0
    0.4124   -0.7145    0.0000 H   0  0  0  0  0  0  0  0  0  0  0  0
    1.0846    1.1497    0.0000 H   0  0  0  0  0  0  0  0  0  0  0  0
    0.3441    1.1497    0.0000 H   0  0  0  0  0  0  0  0  0  0  0  0
    1.0586   -0.7372    0.0000 H   0  0  0  0  0  0  0  0  0  0  0  0
    1.7991   -0.7372    0.0000 H   0  0  0  0  0  0  0  0  0  0  0  0
    2.5136    1.1497    0.0000 H   0  0  0  0  0  0  0  0  0  0  0  0
    1.7731    1.1497    0.0000 H   0  0  0  0  0  0  0  0  0  0  0  0
    2.4875   -0.7372    0.0000 H   0  0  0  0  0  0  0  0  0  0  0  0
    3.2280   -0.7372    0.0000 H   0  0  0  0  0  0  0  0  0  0  0  0
    3.9425    1.1497    0.0000 H   0  0  0  0  0  0  0  0  0  0  0  0
    3.2020    1.1497    0.0000 H   0  0  0  0  0  0  0  0  0  0  0  0
    3.9165   -0.7372    0.0000 H   0  0  0  0  0  0  0  0  0  0  0  0
    4.6570   -0.7372    0.0000 H   0  0  0  0  0  0  0  0  0  0  0  0
    5.3715    1.1497    0.0000 H   0  0  0  0  0  0  0  0  0  0  0  0
    4.6309    1.1497    0.0000 H   0  0  0  0  0  0  0  0  0  0  0  0
    5.3454   -0.7372    0.0000 H   0  0  0  0  0  0  0  0  0  0  0  0
    6.0859   -0.7372    0.0000 H   0  0  0  0  0  0  0  0  0  0  0  0
    7.1446    0.0000    0.0000 H   0  0  0  0  0  0  0  0  0  0  0  0
  1  2  1  0  0  0  0
  2  3  1  0  0  0  0
  3  4  1  0  0  0  0
  4  5  1  0  0  0  0
  5  6  1  0  0  0  0
  6  7  1  0  0  0  0
  7  8  1  0  0  0  0
  8  9  1  0  0  0  0
  9 10  1  0  0  0  0
  1 11  1  0  0  0  0
  1 12  1  0  0  0  0
  1 13  1  0  0  0  0
  2 14  1  0  0  0  0
  2 15  1  0  0  0  0
  3 16  1  0  0  0  0
  3 17  1  0  0  0  0
  4 18  1  0  0  0  0
  4 19  1  0  0  0  0
  5 20  1  0  0  0  0
  5 21  1  0  0  0  0
  6 22  1  0  0  0  0
  6 23  1  0  0  0  0
  7 24  1  0  0  0  0
  7 25  1  0  0  0  0
  8 26  1  0  0  0  0
  8 27  1  0  0  0  0
  9 28  1  0  0  0  0
  9 29  1  0  0  0  0
 10 30  1  0  0  0  0
M  END
> <id>
237242

> <casrn>
143-08-8

> <smiles (First)>
CCCCCCCCCO

> <Molecular weight>
144.25450134277344

> <name>
1-Nonanol

> <Outcome>
0

> <Molecule (RDKit Mol) (InChI Code)>
InChI=1S/C9H20O/c1-2-3-4-5-6-7-8-9-10/h10H,2-9H2,1H3

> <reference>
ToxValDB

> <molecule_form>
not specified

$$$$

  Mrv1812 01171911372D          

 12 11  0  0  0  0            999 V2000
    0.4303    1.2804    0.0000 C   0  0  0  0  0  0  0  0  0  0  0  0
    0.8428    0.5660    0.0000 C   0  0  0  0  0  0  0  0  0  0  0  0
    1.6678    0.5660    0.0000 C   0  0  0  0  0  0  0  0  0  0  0  0
    0.4303   -0.1485    0.0000 C   0  0  0  0  0  0  0  0  0  0  0  0
    0.8428   -0.8630    0.0000 O   0  0  0  0  0  0  0  0  0  0  0  0
   -0.3947   -0.1485    0.0000 O   0  0  0  0  0  0  0  0  0  0  0  0
    1.1448    1.6929    0.0000 H   0  0  0  0  0  0  0  0  0  0  0  0
    0.0178    1.9949    0.0000 H   0  0  0  0  0  0  0  0  0  0  0  0
   -0.2842    0.8679    0.0000 H   0  0  0  0  0  0  0  0  0  0  0  0
    2.0803   -0.1485    0.0000 H   0  0  0  0  0  0  0  0  0  0  0  0
    2.0803    1.2804    0.0000 H   0  0  0  0  0  0  0  0  0  0  0  0
    0.4303   -1.5775    0.0000 H   0  0  0  0  0  0  0  0  0  0  0  0
  1  2  1  0  0  0  0
  2  3  2  0  0  0  0
  2  4  1  0  0  0  0
  4  5  1  0  0  0  0
  4  6  2  0  0  0  0
  1  7  1  0  0  0  0
  1  8  1  0  0  0  0
  1  9  1  0  0  0  0
  3 10  1  0  0  0  0
  3 11  1  0  0  0  0
  5 12  1  0  0  0  0
M  END
> <id>


> <casrn>
79-41-4

> <smiles (First)>


> <Molecular weight>
86.08924102783203

> <name>
Methacrylic acid

> <Outcome>
1

> <Molecule (RDKit Mol) (InChI Code)>
InChI=1S/C4H6O2/c1-3(2)4(5)6/h1H2,2H3,(H,5,6)

> <reference>
ECHA

> <molecule_form>
not specified

$$$$

  Mrv1812 01171911372D          

  7  6  0  0  0  0            999 V2000
    0.8250    0.0000    0.0000 C   0  0  0  0  0  0  0  0  0  0  0  0
   -0.0000    0.0000    0.0000 N   0  0  0  0  0  0  0  0  0  0  0  0
    0.8250   -0.8250    0.0000 H   0  0  0  0  0  0  0  0  0  0  0  0
    1.6500   -0.0000    0.0000 H   0  0  0  0  0  0  0  0  0  0  0  0
    0.8250    0.8250    0.0000 H   0  0  0  0  0  0  0  0  0  0  0  0
   -0.4125    0.7145    0.0000 H   0  0  0  0  0  0  0  0  0  0  0  0
   -0.4125   -0.7145    0.0000 H   0  0  0  0  0  0  0  0  0  0  0  0
  1  2  1  0  0  0  0
  1  3  1  0  0  0  0
  1  4  1  0  0  0  0
  1  5  1  0  0  0  0
  2  6  1  0  0  0  0
  2  7  1  0  0  0  0
M  END
> <id>
3415

> <casrn>
74-89-5

> <smiles (First)>


> <Molecular weight>
31.057100296020508

> <name>
methanamine

> <Outcome>
1

> <Molecule (RDKit Mol) (InChI Code)>
InChI=1S/CH5N/c1-2/h2H2,1H3

> <reference>
ECHA

> <molecule_form>
V

$$$$

  Mrv1812 01171911372D          

 19 18  0  0  0  0            999 V2000
    2.6710   -1.4141    0.0000 C   0  0  0  0  0  0  0  0  0  0  0  0
    2.2585   -0.6997    0.0000 C   0  0  0  0  0  0  0  0  0  0  0  0
    2.6710    0.0148    0.0000 C   0  0  0  0  0  0  0  0  0  0  0  0
    1.4335   -0.6997    0.0000 C   0  0  0  0  0  0  0  0  0  0  0  0
    1.0210    0.0148    0.0000 C   0  0  0  0  0  0  0  0  0  0  0  0
    0.1960    0.0148    0.0000 N   0  0  0  0  0  0  0  0  0  0  0  0
    1.9566   -1.8266    0.0000 H   0  0  0  0  0  0  0  0  0  0  0  0
    3.0835   -2.1286    0.0000 H   0  0  0  0  0  0  0  0  0  0  0  0
    3.3855   -1.0016    0.0000 H   0  0  0  0  0  0  0  0  0  0  0  0
    3.0835   -0.6997    0.0000 H   0  0  0  0  0  0  0  0  0  0  0  0
    3.4679    0.2283    0.0000 H   0  0  0  0  0  0  0  0  0  0  0  0
    2.6710    0.8398    0.0000 H   0  0  0  0  0  0  0  0  0  0  0  0
    1.8741    0.2283    0.0000 H   0  0  0  0  0  0  0  0  0  0  0  0
    0.7443   -1.1530    0.0000 H   0  0  0  0  0  0  0  0  0  0  0  0
    1.3856   -1.5233    0.0000 H   0  0  0  0  0  0  0  0  0  0  0  0
    0.9201    0.8336    0.0000 H   0  0  0  0  0  0  0  0  0  0  0  0
    0.6085   -0.6997    0.0000 H   0  0  0  0  0  0  0  0  0  0  0  0
   -0.1742    0.7520    0.0000 H   0  0  0  0  0  0  0  0  0  0  0  0
   -0.6276   -0.0332    0.0000 H   0  0  0  0  0  0  0  0  0  0  0  0
  1  2  1  0  0  0  0
  2  3  1  0  0  0  0
  2  4  1  0  0  0  0
  4  5  1  0  0  0  0
  5  6  1  0  0  0  0
  1  7  1  0  0  0  0
  1  8  1  0  0  0  0
  1  9  1  0  0  0  0
  2 10  1  0  0  0  0
  3 11  1  0  0  0  0
  3 12  1  0  0  0  0
  3 13  1  0  0  0  0
  4 14  1  0  0  0  0
  4 15  1  0  0  0  0
  5 16  1  0  0  0  0
  5 17  1  0  0  0  0
  6 18  1  0  0  0  0
  6 19  1  0  0  0  0
M  END
> <id>
1787; 1786

> <casrn>
107-85-7

> <smiles (First)>


> <Molecular weight>
87.16342163085938

> <name>
3-methylbutan-1-amine

> <Outcome>
1

> <Molecule (RDKit Mol) (InChI Code)>
InChI=1S/C5H13N/c1-5(2)3-4-6/h5H,3-4,6H2,1-2H3

> <reference>
ECHA

> <molecule_form>
V

$$$$

  Mrv1812 01171911372D          

 64 63  0  0  0  0            999 V2000
    2.6210    9.7575    0.0000 C   0  0  0  0  0  0  0  0  0  0  0  0
    2.6210    8.9325    0.0000 C   0  0  0  0  0  0  0  0  0  0  0  0
    3.3355    8.5200    0.0000 C   0  0  0  0  0  0  0  0  0  0  0  0
    3.3355    7.6950    0.0000 C   0  0  0  0  0  0  0  0  0  0  0  0
    4.0499    7.2825    0.0000 C   0  0  0  0  0  0  0  0  0  0  0  0
    4.0499    6.4575    0.0000 C   0  0  0  0  0  0  0  0  0  0  0  0
    4.7644    6.0450    0.0000 C   0  0  0  0  0  0  0  0  0  0  0  0
    4.7644    5.2200    0.0000 C   0  0  0  0  0  0  0  0  0  0  0  0
    5.4789    4.8075    0.0000 C   0  0  0  0  0  0  0  0  0  0  0  0
    5.4789    3.9825    0.0000 C   0  0  0  0  0  0  0  0  0  0  0  0
    6.1933    3.5700    0.0000 C   0  0  0  0  0  0  0  0  0  0  0  0
    6.9078    3.9825    0.0000 C   0  0  0  0  0  0  0  0  0  0  0  0
    7.6223    3.5700    0.0000 C   0  0  0  0  0  0  0  0  0  0  0  0
    8.3367    3.9825    0.0000 C   0  0  0  0  0  0  0  0  0  0  0  0
    9.0512    3.5700    0.0000 C   0  0  0  0  0  0  0  0  0  0  0  0
    9.7657    3.9825    0.0000 C   0  0  0  0  0  0  0  0  0  0  0  0
   10.4802    3.5700    0.0000 C   0  0  0  0  0  0  0  0  0  0  0  0
   11.1946    3.9825    0.0000 C   0  0  0  0  0  0  0  0  0  0  0  0
   11.1946    4.8075    0.0000 O   0  0  0  0  0  0  0  0  0  0  0  0
   11.9091    3.5700    0.0000 N   0  0  0  0  0  0  0  0  0  0  0  0
   11.9091    2.7450    0.0000 C   0  0  0  0  0  0  0  0  0  0  0  0
   12.6236    3.9825    0.0000 C   0  0  0  0  0  0  0  0  0  0  0  0
   13.3380    3.5700    0.0000 C   0  0  0  0  0  0  0  0  0  0  0  0
   14.0525    3.9825    0.0000 O   0  0  0  0  0  0  0  0  0  0  0  0
   13.3380    2.7450    0.0000 O   0  0  0  0  0  0  0  0  0  0  0  0
    3.4460    9.7575    0.0000 H   0  0  0  0  0  0  0  0  0  0  0  0
    2.6210   10.5825    0.0000 H   0  0  0  0  0  0  0  0  0  0  0  0
    1.7960    9.7575    0.0000 H   0  0  0  0  0  0  0  0  0  0  0  0
    1.7974    8.8846    0.0000 H   0  0  0  0  0  0  0  0  0  0  0  0
    2.1676    8.2432    0.0000 H   0  0  0  0  0  0  0  0  0  0  0  0
    4.1591    8.5680    0.0000 H   0  0  0  0  0  0  0  0  0  0  0  0
    3.7888    9.2093    0.0000 H   0  0  0  0  0  0  0  0  0  0  0  0
    2.5118    7.6471    0.0000 H   0  0  0  0  0  0  0  0  0  0  0  0
    2.8821    7.0057    0.0000 H   0  0  0  0  0  0  0  0  0  0  0  0
    4.8735    7.3305    0.0000 H   0  0  0  0  0  0  0  0  0  0  0  0
    4.5033    7.9718    0.0000 H   0  0  0  0  0  0  0  0  0  0  0  0
    3.2263    6.4096    0.0000 H   0  0  0  0  0  0  0  0  0  0  0  0
    3.5966    5.7682    0.0000 H   0  0  0  0  0  0  0  0  0  0  0  0
    5.5880    6.0930    0.0000 H   0  0  0  0  0  0  0  0  0  0  0  0
    5.2177    6.7343    0.0000 H   0  0  0  0  0  0  0  0  0  0  0  0
    3.9408    5.1721    0.0000 H   0  0  0  0  0  0  0  0  0  0  0  0
    4.3111    4.5307    0.0000 H   0  0  0  0  0  0  0  0  0  0  0  0
    6.1933    5.2200    0.0000 H   0  0  0  0  0  0  0  0  0  0  0  0
    4.7644    3.5700    0.0000 H   0  0  0  0  0  0  0  0  0  0  0  0
    5.8231    2.8328    0.0000 H   0  0  0  0  0  0  0  0  0  0  0  0
    6.5636    2.8328    0.0000 H   0  0  0  0  0  0  0  0  0  0  0  0
    7.2781    4.7198    0.0000 H   0  0  0  0  0  0  0  0  0  0  0  0
    6.5375    4.7198    0.0000 H   0  0  0  0  0  0  0  0  0  0  0  0
    7.2520    2.8328    0.0000 H   0  0  0  0  0  0  0  0  0  0  0  0
    7.9925    2.8328    0.0000 H   0  0  0  0  0  0  0  0  0  0  0  0
    8.7070    4.7198    0.0000 H   0  0  0  0  0  0  0  0  0  0  0  0
    7.9665    4.7198    0.0000 H   0  0  0  0  0  0  0  0  0  0  0  0
    8.6810    2.8328    0.0000 H   0  0  0  0  0  0  0  0  0  0  0  0
    9.4215    2.8328    0.0000 H   0  0  0  0  0  0  0  0  0  0  0  0
   10.1360    4.7198    0.0000 H   0  0  0  0  0  0  0  0  0  0  0  0
    9.3954    4.7198    0.0000 H   0  0  0  0  0  0  0  0  0  0  0  0
   10.1099    2.8328    0.0000 H   0  0  0  0  0  0  0  0  0  0  0  0
   10.8504    2.8328    0.0000 H   0  0  0  0  0  0  0  0  0  0  0  0
   11.0841    2.7450    0.0000 H   0  0  0  0  0  0  0  0  0  0  0  0
   11.9091    1.9200    0.0000 H   0  0  0  0  0  0  0  0  0  0  0  0
   12.7341    2.7450    0.0000 H   0  0  0  0  0  0  0  0  0  0  0  0
   12.9938    4.7198    0.0000 H   0  0  0  0  0  0  0  0  0  0  0  0
   12.2533    4.7198    0.0000 H   0  0  0  0  0  0  0  0  0  0  0  0
   13.9214    2.1617    0.0000 H   0  0  0  0  0  0  0  0  0  0  0  0
  1  2  1  0  0  0  0
  2  3  1  0  0  0  0
  3  4  1  0  0  0  0
  4  5  1  0  0  0  0
  5  6  1  0  0  0  0
  6  7  1  0  0  0  0
  7  8  1  0  0  0  0
  9  8  1  4  0  0  0
  9 10  2  0  0  0  0
 10 11  1  0  0  0  0
 11 12  1  0  0  0  0
 12 13  1  0  0  0  0
 13 14  1  0  0  0  0
 14 15  1  0  0  0  0
 15 16  1  0  0  0  0
 16 17  1  0  0  0  0
 17 18  1  0  0  0  0
 18 19  2  0  0  0  0
 18 20  1  0  0  0  0
 20 21  1  0  0  0  0
 20 22  1  0  0  0  0
 22 23  1  0  0  0  0
 23 24  2  0  0  0  0
 23 25  1  0  0  0  0
  1 26  1  0  0  0  0
  1 27  1  0  0  0  0
  1 28  1  0  0  0  0
  2 29  1  0  0  0  0
  2 30  1  0  0  0  0
  3 31  1  0  0  0  0
  3 32  1  0  0  0  0
  4 33  1  0  0  0  0
  4 34  1  0  0  0  0
  5 35  1  0  0  0  0
  5 36  1  0  0  0  0
  6 37  1  0  0  0  0
  6 38  1  0  0  0  0
  7 39  1  0  0  0  0
  7 40  1  0  0  0  0
  8 41  1  0  0  0  0
  8 42  1  0  0  0  0
  9 43  1  0  0  0  0
 10 44  1  0  0  0  0
 11 45  1  0  0  0  0
 11 46  1  0  0  0  0
 12 47  1  0  0  0  0
 12 48  1  0  0  0  0
 13 49  1  0  0  0  0
 13 50  1  0  0  0  0
 14 51  1  0  0  0  0
 14 52  1  0  0  0  0
 15 53  1  0  0  0  0
 15 54  1  0  0  0  0
 16 55  1  0  0  0  0
 16 56  1  0  0  0  0
 17 57  1  0  0  0  0
 17 58  1  0  0  0  0
 21 59  1  0  0  0  0
 21 60  1  0  0  0  0
 21 61  1  0  0  0  0
 22 62  1  0  0  0  0
 22 63  1  0  0  0  0
 25 64  1  0  0  0  0
M  END
> <id>
3744

> <casrn>
76622-74-7

> <smiles (First)>


> <Molecular weight>
352.5313415527344

> <name>
potassium (Z)-N-methyl-N-(1-oxo-9-octadecenyl)aminoacetate

> <Outcome>
1

> <Molecule (RDKit Mol) (InChI Code)>
InChI=1S/C21H39NO3/c1-3-4-5-6-7-8-9-10-11-12-13-14-15-16-17-18-20(23)22(2)19-21(24)25/h10-11H,3-9,12-19H2,1-2H3,(H,24,25)

> <reference>
ECHA

> <molecule_form>
A

$$$$

  Mrv1812 01171911372D          

 23 22  0  0  0  0            999 V2000
    1.0496    1.4067    0.0000 C   0  0  0  0  0  0  0  0  0  0  0  0
    1.7640    1.8192    0.0000 C   0  0  0  0  0  0  0  0  0  0  0  0
    2.4785    1.4067    0.0000 C   0  0  0  0  0  0  0  0  0  0  0  0
    2.4785    0.5817    0.0000 O   0  0  0  0  0  0  0  0  0  0  0  0
    3.1930    1.8192    0.0000 O   0  0  0  0  0  0  0  0  0  0  0  0
    3.9075    1.4067    0.0000 C   0  0  0  0  0  0  0  0  0  0  0  0
    4.6219    1.8192    0.0000 C   0  0  0  0  0  0  0  0  0  0  0  0
    5.3364    1.4067    0.0000 N   0  0  0  0  0  0  0  0  0  0  0  0
    6.0509    1.8192    0.0000 C   0  0  0  0  0  0  0  0  0  0  0  0
    5.3364    0.5817    0.0000 C   0  0  0  0  0  0  0  0  0  0  0  0
    0.3351    1.8192    0.0000 H   0  0  0  0  0  0  0  0  0  0  0  0
    1.0496    0.5817    0.0000 H   0  0  0  0  0  0  0  0  0  0  0  0
    1.7640    2.6442    0.0000 H   0  0  0  0  0  0  0  0  0  0  0  0
    3.5372    0.6695    0.0000 H   0  0  0  0  0  0  0  0  0  0  0  0
    4.2777    0.6695    0.0000 H   0  0  0  0  0  0  0  0  0  0  0  0
    4.9922    2.5565    0.0000 H   0  0  0  0  0  0  0  0  0  0  0  0
    4.2517    2.5565    0.0000 H   0  0  0  0  0  0  0  0  0  0  0  0
    6.4634    1.1047    0.0000 H   0  0  0  0  0  0  0  0  0  0  0  0
    6.7653    2.2317    0.0000 H   0  0  0  0  0  0  0  0  0  0  0  0
    5.6384    2.5337    0.0000 H   0  0  0  0  0  0  0  0  0  0  0  0
    4.5114    0.5817    0.0000 H   0  0  0  0  0  0  0  0  0  0  0  0
    5.3364   -0.2433    0.0000 H   0  0  0  0  0  0  0  0  0  0  0  0
    6.1614    0.5817    0.0000 H   0  0  0  0  0  0  0  0  0  0  0  0
  1  2  2  0  0  0  0
  2  3  1  0  0  0  0
  3  4  2  0  0  0  0
  3  5  1  0  0  0  0
  5  6  1  0  0  0  0
  6  7  1  0  0  0  0
  7  8  1  0  0  0  0
  8  9  1  0  0  0  0
  8 10  1  0  0  0  0
  1 11  1  0  0  0  0
  1 12  1  0  0  0  0
  2 13  1  0  0  0  0
  6 14  1  0  0  0  0
  6 15  1  0  0  0  0
  7 16  1  0  0  0  0
  7 17  1  0  0  0  0
  9 18  1  0  0  0  0
  9 19  1  0  0  0  0
  9 20  1  0  0  0  0
 10 21  1  0  0  0  0
 10 22  1  0  0  0  0
 10 23  1  0  0  0  0
M  END
> <id>
1342; 1340; 1343

> <casrn>
2439-35-2

> <smiles (First)>


> <Molecular weight>
143.18362426757812

> <name>
2-(dimethylamino)ethyl acrylate

> <Outcome>
1

> <Molecule (RDKit Mol) (InChI Code)>
InChI=1S/C7H13NO2/c1-4-7(9)10-6-5-8(2)3/h4H,1,5-6H2,2-3H3

> <reference>
ECHA

> <molecule_form>
V; A

$$$$

  Mrv1812 01171911372D          

 19 18  0  0  0  0            999 V2000
    1.7605    1.8396    0.0000 C   0  0  0  0  0  0  0  0  0  0  0  0
    2.4750    1.4271    0.0000 C   0  0  0  0  0  0  0  0  0  0  0  0
    3.1895    1.8396    0.0000 C   0  0  0  0  0  0  0  0  0  0  0  0
    3.9040    1.4271    0.0000 O   0  0  0  0  0  0  0  0  0  0  0  0
    4.6184    1.8396    0.0000 C   0  0  0  0  0  0  0  0  0  0  0  0
    4.6184    2.6646    0.0000 O   0  0  0  0  0  0  0  0  0  0  0  0
    5.3329    1.4271    0.0000 C   0  0  0  0  0  0  0  0  0  0  0  0
    6.0474    1.8396    0.0000 C   0  0  0  0  0  0  0  0  0  0  0  0
    5.3329    0.6021    0.0000 C   0  0  0  0  0  0  0  0  0  0  0  0
    1.7605    2.6646    0.0000 H   0  0  0  0  0  0  0  0  0  0  0  0
    1.0461    1.4271    0.0000 H   0  0  0  0  0  0  0  0  0  0  0  0
    2.4750    0.6021    0.0000 H   0  0  0  0  0  0  0  0  0  0  0  0
    3.5597    2.5768    0.0000 H   0  0  0  0  0  0  0  0  0  0  0  0
    2.8192    2.5768    0.0000 H   0  0  0  0  0  0  0  0  0  0  0  0
    6.7618    1.4271    0.0000 H   0  0  0  0  0  0  0  0  0  0  0  0
    6.0474    2.6646    0.0000 H   0  0  0  0  0  0  0  0  0  0  0  0
    4.5079    0.6021    0.0000 H   0  0  0  0  0  0  0  0  0  0  0  0
    5.3329   -0.2229    0.0000 H   0  0  0  0  0  0  0  0  0  0  0  0
    6.1579    0.6021    0.0000 H   0  0  0  0  0  0  0  0  0  0  0  0
  1  2  2  0  0  0  0
  2  3  1  0  0  0  0
  3  4  1  0  0  0  0
  4  5  1  0  0  0  0
  5  6  2  0  0  0  0
  5  7  1  0  0  0  0
  7  8  2  0  0  0  0
  7  9  1  0  0  0  0
  1 10  1  0  0  0  0
  1 11  1  0  0  0  0
  2 12  1  0  0  0  0
  3 13  1  0  0  0  0
  3 14  1  0  0  0  0
  8 15  1  0  0  0  0
  8 16  1  0  0  0  0
  9 17  1  0  0  0  0
  9 18  1  0  0  0  0
  9 19  1  0  0  0  0
M  END
> <id>
3770; 3771

> <casrn>
96-05-9

> <smiles (First)>


> <Molecular weight>
126.15310668945312

> <name>
prop-2-en-1-yl 2-methylprop-2-enoate

> <Outcome>
1

> <Molecule (RDKit Mol) (InChI Code)>
InChI=1S/C7H10O2/c1-4-5-9-7(8)6(2)3/h4H,1-2,5H2,3H3

> <reference>
ECHA

> <molecule_form>
V

$$$$

  Mrv1812 01171911372D          

 22 22  0  0  0  0            999 V2000
    1.4317    2.4734    0.0000 N   0  0  0  0  0  0  0  0  0  0  0  0
    0.7172    2.0609    0.0000 C   0  0  0  0  0  0  0  0  0  0  0  0
    0.7172    1.2359    0.0000 C   0  0  0  0  0  0  0  0  0  0  0  0
    1.4317    0.8234    0.0000 C   0  0  0  0  0  0  0  0  0  0  0  0
    1.4317   -0.0016    0.0000 C   0  0  0  0  0  0  0  0  0  0  0  0
    0.7172   -0.4141    0.0000 C   0  0  0  0  0  0  0  0  0  0  0  0
    0.0027   -0.0016    0.0000 C   0  0  0  0  0  0  0  0  0  0  0  0
   -0.7117   -0.4141    0.0000 C   0  0  0  0  0  0  0  0  0  0  0  0
   -0.7117   -1.2391    0.0000 N   0  0  0  0  0  0  0  0  0  0  0  0
    0.0027    0.8234    0.0000 C   0  0  0  0  0  0  0  0  0  0  0  0
    2.1462    2.0609    0.0000 H   0  0  0  0  0  0  0  0  0  0  0  0
    1.4317    3.2984    0.0000 H   0  0  0  0  0  0  0  0  0  0  0  0
    0.2639    2.7502    0.0000 H   0  0  0  0  0  0  0  0  0  0  0  0
   -0.1064    2.1089    0.0000 H   0  0  0  0  0  0  0  0  0  0  0  0
    2.1462    1.2359    0.0000 H   0  0  0  0  0  0  0  0  0  0  0  0
    2.1462   -0.4141    0.0000 H   0  0  0  0  0  0  0  0  0  0  0  0
    0.7172   -1.2391    0.0000 H   0  0  0  0  0  0  0  0  0  0  0  0
   -1.1651    0.2752    0.0000 H   0  0  0  0  0  0  0  0  0  0  0  0
   -1.5353   -0.3661    0.0000 H   0  0  0  0  0  0  0  0  0  0  0  0
   -1.4262   -1.6516    0.0000 H   0  0  0  0  0  0  0  0  0  0  0  0
    0.0027   -1.6516    0.0000 H   0  0  0  0  0  0  0  0  0  0  0  0
   -0.7117    1.2359    0.0000 H   0  0  0  0  0  0  0  0  0  0  0  0
  1  2  1  0  0  0  0
  2  3  1  0  0  0  0
  3  4  4  0  0  0  0
  4  5  4  0  0  0  0
  5  6  4  0  0  0  0
  6  7  4  0  0  0  0
  7  8  1  0  0  0  0
  8  9  1  0  0  0  0
  7 10  4  0  0  0  0
  3 10  4  0  0  0  0
  1 11  1  0  0  0  0
  1 12  1  0  0  0  0
  2 13  1  0  0  0  0
  2 14  1  0  0  0  0
  4 15  1  0  0  0  0
  5 16  1  0  0  0  0
  6 17  1  0  0  0  0
  8 18  1  0  0  0  0
  8 19  1  0  0  0  0
  9 20  1  0  0  0  0
  9 21  1  0  0  0  0
 10 22  1  0  0  0  0
M  END
> <id>
999

> <casrn>
1477-55-0

> <smiles (First)>


> <Molecular weight>
136.19427490234375

> <name>
1,3-phenylenedimethanamine

> <Outcome>
1

> <Molecule (RDKit Mol) (InChI Code)>
InChI=1S/C8H12N2/c9-5-7-2-1-3-8(4-7)6-10/h1-4H,5-6,9-10H2

> <reference>
ECHA

> <molecule_form>
A

$$$$

  Mrv1812 01171911372D          

 31 30  0  0  0  0            999 V2000
    3.0164    2.5341    0.0000 C   0  0  0  0  0  0  0  0  0  0  0  0
    3.7309    2.1216    0.0000 N   0  0  0  0  0  0  0  0  0  0  0  0
    3.7309    1.2966    0.0000 C   0  0  0  0  0  0  0  0  0  0  0  0
    4.4453    2.5341    0.0000 C   0  0  0  0  0  0  0  0  0  0  0  0
    5.1598    2.1216    0.0000 C   0  0  0  0  0  0  0  0  0  0  0  0
    5.8743    2.5341    0.0000 O   0  0  0  0  0  0  0  0  0  0  0  0
    6.5887    2.1216    0.0000 C   0  0  0  0  0  0  0  0  0  0  0  0
    7.3032    2.5341    0.0000 C   0  0  0  0  0  0  0  0  0  0  0  0
    8.0177    2.1216    0.0000 N   0  0  0  0  0  0  0  0  0  0  0  0
    8.7321    2.5341    0.0000 C   0  0  0  0  0  0  0  0  0  0  0  0
    8.0177    1.2966    0.0000 C   0  0  0  0  0  0  0  0  0  0  0  0
    3.4289    3.2485    0.0000 H   0  0  0  0  0  0  0  0  0  0  0  0
    2.3019    2.9466    0.0000 H   0  0  0  0  0  0  0  0  0  0  0  0
    2.6039    1.8196    0.0000 H   0  0  0  0  0  0  0  0  0  0  0  0
    2.9059    1.2966    0.0000 H   0  0  0  0  0  0  0  0  0  0  0  0
    3.7309    0.4716    0.0000 H   0  0  0  0  0  0  0  0  0  0  0  0
    4.5559    1.2966    0.0000 H   0  0  0  0  0  0  0  0  0  0  0  0
    4.8156    3.2713    0.0000 H   0  0  0  0  0  0  0  0  0  0  0  0
    4.0751    3.2713    0.0000 H   0  0  0  0  0  0  0  0  0  0  0  0
    4.7895    1.3843    0.0000 H   0  0  0  0  0  0  0  0  0  0  0  0
    5.5301    1.3843    0.0000 H   0  0  0  0  0  0  0  0  0  0  0  0
    6.2185    1.3843    0.0000 H   0  0  0  0  0  0  0  0  0  0  0  0
    6.9590    1.3843    0.0000 H   0  0  0  0  0  0  0  0  0  0  0  0
    7.6735    3.2713    0.0000 H   0  0  0  0  0  0  0  0  0  0  0  0
    6.9329    3.2713    0.0000 H   0  0  0  0  0  0  0  0  0  0  0  0
    9.1446    1.8196    0.0000 H   0  0  0  0  0  0  0  0  0  0  0  0
    9.4466    2.9466    0.0000 H   0  0  0  0  0  0  0  0  0  0  0  0
    8.3196    3.2485    0.0000 H   0  0  0  0  0  0  0  0  0  0  0  0
    7.1927    1.2966    0.0000 H   0  0  0  0  0  0  0  0  0  0  0  0
    8.0177    0.4716    0.0000 H   0  0  0  0  0  0  0  0  0  0  0  0
    8.8427    1.2966    0.0000 H   0  0  0  0  0  0  0  0  0  0  0  0
  1  2  1  0  0  0  0
  2  3  1  0  0  0  0
  2  4  1  0  0  0  0
  4  5  1  0  0  0  0
  5  6  1  0  0  0  0
  6  7  1  0  0  0  0
  7  8  1  0  0  0  0
  8  9  1  0  0  0  0
  9 10  1  0  0  0  0
  9 11  1  0  0  0  0
  1 12  1  0  0  0  0
  1 13  1  0  0  0  0
  1 14  1  0  0  0  0
  3 15  1  0  0  0  0
  3 16  1  0  0  0  0
  3 17  1  0  0  0  0
  4 18  1  0  0  0  0
  4 19  1  0  0  0  0
  5 20  1  0  0  0  0
  5 21  1  0  0  0  0
  7 22  1  0  0  0  0
  7 23  1  0  0  0  0
  8 24  1  0  0  0  0
  8 25  1  0  0  0  0
 10 26  1  0  0  0  0
 10 27  1  0  0  0  0
 10 28  1  0  0  0  0
 11 29  1  0  0  0  0
 11 30  1  0  0  0  0
 11 31  1  0  0  0  0
M  END
> <id>
4645

> <casrn>
3033-62-3

> <smiles (First)>


> <Molecular weight>
160.2572021484375

> <name>
{2-[2-(dimethylamino)ethoxy]ethyl}dimethylamine

> <Outcome>
1

> <Molecule (RDKit Mol) (InChI Code)>
InChI=1S/C8H20N2O/c1-9(2)5-7-11-8-6-10(3)4/h5-8H2,1-4H3

> <reference>
ECHA

> <molecule_form>
A

$$$$

  Mrv1812 01171911372D          

 16 15  0  0  0  0            999 V2000
    3.3012   -1.4270    0.0000 C   0  0  0  0  0  0  0  0  0  0  0  0
    2.4762   -1.4270    0.0000 C   0  0  0  0  0  0  0  0  0  0  0  0
    2.0637   -0.7126    0.0000 C   0  0  0  0  0  0  0  0  0  0  0  0
    1.2387   -0.7126    0.0000 C   0  0  0  0  0  0  0  0  0  0  0  0
    0.8262    0.0019    0.0000 N   0  0  0  0  0  0  0  0  0  0  0  0
    0.0012    0.0019    0.0000 C   0  0  0  0  0  0  0  0  0  0  0  0
   -0.8238    0.0019    0.0000 O   0  0  0  0  0  0  0  0  0  0  0  0
    3.3012   -2.2520    0.0000 H   0  0  0  0  0  0  0  0  0  0  0  0
    4.1262   -1.4270    0.0000 H   0  0  0  0  0  0  0  0  0  0  0  0
    3.3012   -0.6020    0.0000 H   0  0  0  0  0  0  0  0  0  0  0  0
    1.7869   -1.8804    0.0000 H   0  0  0  0  0  0  0  0  0  0  0  0
    2.4282   -2.2506    0.0000 H   0  0  0  0  0  0  0  0  0  0  0  0
    2.7529   -0.2592    0.0000 H   0  0  0  0  0  0  0  0  0  0  0  0
    2.1116    0.1111    0.0000 H   0  0  0  0  0  0  0  0  0  0  0  0
    0.5494   -1.1659    0.0000 H   0  0  0  0  0  0  0  0  0  0  0  0
    1.1907   -1.5362    0.0000 H   0  0  0  0  0  0  0  0  0  0  0  0
  1  2  1  0  0  0  0
  2  3  1  0  0  0  0
  3  4  1  0  0  0  0
  4  5  1  0  0  0  0
  5  6  2  0  0  0  0
  6  7  2  0  0  0  0
  1  8  1  0  0  0  0
  1  9  1  0  0  0  0
  1 10  1  0  0  0  0
  2 11  1  0  0  0  0
  2 12  1  0  0  0  0
  3 13  1  0  0  0  0
  3 14  1  0  0  0  0
  4 15  1  0  0  0  0
  4 16  1  0  0  0  0
M  END
> <id>
1181; 1183; 1180; 1184

> <casrn>
111-36-4

> <smiles (First)>


> <Molecular weight>
99.13105773925781

> <name>
1-isocyanatobutane

> <Outcome>
1

> <Molecule (RDKit Mol) (InChI Code)>
InChI=1S/C5H9NO/c1-2-3-4-6-5-7/h2-4H2,1H3

> <reference>
ECHA

> <molecule_form>
V

$$$$

  Mrv1812 01171911372D          

 11 11  0  0  0  0            999 V2000
   -0.1467    2.3518    0.0000 O   0  0  0  0  0  0  0  0  0  0  0  0
    0.5678    1.9393    0.0000 C   0  0  0  0  0  0  0  0  0  0  0  0
    0.5678    1.1143    0.0000 C   0  0  0  0  0  0  0  0  0  0  0  0
    1.2352    0.6294    0.0000 C   0  0  0  0  0  0  0  0  0  0  0  0
    0.9803   -0.1553    0.0000 C   0  0  0  0  0  0  0  0  0  0  0  0
    0.1553   -0.1553    0.0000 C   0  0  0  0  0  0  0  0  0  0  0  0
   -0.0997    0.6294    0.0000 O   0  0  0  0  0  0  0  0  0  0  0  0
    1.2823    2.3518    0.0000 H   0  0  0  0  0  0  0  0  0  0  0  0
    2.0198    0.8843    0.0000 H   0  0  0  0  0  0  0  0  0  0  0  0
    1.4652   -0.8227    0.0000 H   0  0  0  0  0  0  0  0  0  0  0  0
   -0.3296   -0.8227    0.0000 H   0  0  0  0  0  0  0  0  0  0  0  0
  1  2  2  0  0  0  0
  2  3  1  0  0  0  0
  3  4  4  0  0  0  0
  4  5  4  0  0  0  0
  5  6  4  0  0  0  0
  6  7  4  0  0  0  0
  3  7  4  0  0  0  0
  2  8  1  0  0  0  0
  4  9  1  0  0  0  0
  5 10  1  0  0  0  0
  6 11  1  0  0  0  0
M  END
> <id>
3220

> <casrn>
98-01-1

> <smiles (First)>


> <Molecular weight>
96.08406066894531

> <name>
furan-2-carbaldehyde

> <Outcome>
1

> <Molecule (RDKit Mol) (InChI Code)>
InChI=1S/C5H4O2/c6-4-5-2-1-3-7-5/h1-4H

> <reference>
ECHA

> <molecule_form>
A

$$$$

  Mrv1812 01171911372D          

 40 39  0  0  0  0            999 V2000
    5.2698    5.5637    0.0000 C   0  0  0  0  0  0  0  0  0  0  0  0
    4.5553    5.1512    0.0000 C   0  0  0  0  0  0  0  0  0  0  0  0
    4.5553    4.3262    0.0000 C   0  0  0  0  0  0  0  0  0  0  0  0
    3.8409    3.9137    0.0000 C   0  0  0  0  0  0  0  0  0  0  0  0
    3.8409    3.0887    0.0000 N   0  0  0  0  0  0  0  0  0  0  0  0
    3.1264    2.6762    0.0000 C   0  0  0  0  0  0  0  0  0  0  0  0
    3.1264    1.8512    0.0000 C   0  0  0  0  0  0  0  0  0  0  0  0
    2.4119    1.4387    0.0000 C   0  0  0  0  0  0  0  0  0  0  0  0
    2.4119    0.6137    0.0000 C   0  0  0  0  0  0  0  0  0  0  0  0
    4.5553    2.6762    0.0000 C   0  0  0  0  0  0  0  0  0  0  0  0
    4.5553    1.8512    0.0000 C   0  0  0  0  0  0  0  0  0  0  0  0
    5.2698    1.4387    0.0000 C   0  0  0  0  0  0  0  0  0  0  0  0
    5.2698    0.6137    0.0000 C   0  0  0  0  0  0  0  0  0  0  0  0
    5.6823    4.8493    0.0000 H   0  0  0  0  0  0  0  0  0  0  0  0
    5.9843    5.9762    0.0000 H   0  0  0  0  0  0  0  0  0  0  0  0
    4.8573    6.2782    0.0000 H   0  0  0  0  0  0  0  0  0  0  0  0
    4.1020    5.8405    0.0000 H   0  0  0  0  0  0  0  0  0  0  0  0
    3.7317    5.1992    0.0000 H   0  0  0  0  0  0  0  0  0  0  0  0
    5.0087    3.6370    0.0000 H   0  0  0  0  0  0  0  0  0  0  0  0
    5.3789    4.2783    0.0000 H   0  0  0  0  0  0  0  0  0  0  0  0
    3.3875    4.6030    0.0000 H   0  0  0  0  0  0  0  0  0  0  0  0
    3.0173    3.9617    0.0000 H   0  0  0  0  0  0  0  0  0  0  0  0
    2.6730    3.3655    0.0000 H   0  0  0  0  0  0  0  0  0  0  0  0
    2.3028    2.7242    0.0000 H   0  0  0  0  0  0  0  0  0  0  0  0
    3.5797    1.1620    0.0000 H   0  0  0  0  0  0  0  0  0  0  0  0
    3.9500    1.8033    0.0000 H   0  0  0  0  0  0  0  0  0  0  0  0
    1.9586    2.1280    0.0000 H   0  0  0  0  0  0  0  0  0  0  0  0
    1.5883    1.4867    0.0000 H   0  0  0  0  0  0  0  0  0  0  0  0
    1.5869    0.6137    0.0000 H   0  0  0  0  0  0  0  0  0  0  0  0
    2.4119   -0.2113    0.0000 H   0  0  0  0  0  0  0  0  0  0  0  0
    3.2369    0.6137    0.0000 H   0  0  0  0  0  0  0  0  0  0  0  0
    5.3789    2.7242    0.0000 H   0  0  0  0  0  0  0  0  0  0  0  0
    5.0087    3.3655    0.0000 H   0  0  0  0  0  0  0  0  0  0  0  0
    4.3735    1.0465    0.0000 H   0  0  0  0  0  0  0  0  0  0  0  0
    5.2698    2.2637    0.0000 H   0  0  0  0  0  0  0  0  0  0  0  0
    6.0450    1.1566    0.0000 H   0  0  0  0  0  0  0  0  0  0  0  0
    6.0450    1.7209    0.0000 H   0  0  0  0  0  0  0  0  0  0  0  0
    4.4684    0.8098    0.0000 H   0  0  0  0  0  0  0  0  0  0  0  0
    4.8889   -0.1180    0.0000 H   0  0  0  0  0  0  0  0  0  0  0  0
    5.8901    0.0698    0.0000 H   0  0  0  0  0  0  0  0  0  0  0  0
  1  2  1  0  0  0  0
  2  3  1  0  0  0  0
  3  4  1  0  0  0  0
  4  5  1  0  0  0  0
  5  6  1  0  0  0  0
  6  7  1  0  0  0  0
  7  8  1  0  0  0  0
  8  9  1  0  0  0  0
  5 10  1  0  0  0  0
 10 11  1  0  0  0  0
 11 12  1  0  0  0  0
 12 13  1  0  0  0  0
  1 14  1  0  0  0  0
  1 15  1  0  0  0  0
  1 16  1  0  0  0  0
  2 17  1  0  0  0  0
  2 18  1  0  0  0  0
  3 19  1  0  0  0  0
  3 20  1  0  0  0  0
  4 21  1  0  0  0  0
  4 22  1  0  0  0  0
  6 23  1  0  0  0  0
  6 24  1  0  0  0  0
  7 25  1  0  0  0  0
  7 26  1  0  0  0  0
  8 27  1  0  0  0  0
  8 28  1  0  0  0  0
  9 29  1  0  0  0  0
  9 30  1  0  0  0  0
  9 31  1  0  0  0  0
 10 32  1  0  0  0  0
 10 33  1  0  0  0  0
 11 34  1  0  0  0  0
 11 35  1  0  0  0  0
 12 36  1  0  0  0  0
 12 37  1  0  0  0  0
 13 38  1  0  0  0  0
 13 39  1  0  0  0  0
 13 40  1  0  0  0  0
M  END
> <id>
4015; 4016

> <casrn>
102-82-9

> <smiles (First)>


> <Molecular weight>
185.3494873046875

> <name>
tributylamine

> <Outcome>
1

> <Molecule (RDKit Mol) (InChI Code)>
InChI=1S/C12H27N/c1-4-7-10-13(11-8-5-2)12-9-6-3/h4-12H2,1-3H3

> <reference>
ECHA

> <molecule_form>
V

$$$$

  Mrv1812 01171911372D          

 24 23  0  0  0  0            999 V2000
    2.2836    2.9714    0.0000 C   0  0  0  0  0  0  0  0  0  0  0  0
    2.9980    2.5589    0.0000 C   0  0  0  0  0  0  0  0  0  0  0  0
    3.7125    2.1464    0.0000 C   0  0  0  0  0  0  0  0  0  0  0  0
    4.4270    2.5589    0.0000 O   0  0  0  0  0  0  0  0  0  0  0  0
    5.1414    2.1464    0.0000 C   0  0  0  0  0  0  0  0  0  0  0  0
    5.1414    1.3214    0.0000 O   0  0  0  0  0  0  0  0  0  0  0  0
    5.8559    2.5589    0.0000 N   0  0  0  0  0  0  0  0  0  0  0  0
    6.5704    2.1464    0.0000 C   0  0  0  0  0  0  0  0  0  0  0  0
    7.2849    2.5589    0.0000 C   0  0  0  0  0  0  0  0  0  0  0  0
    7.9993    2.1464    0.0000 C   0  0  0  0  0  0  0  0  0  0  0  0
    8.7138    2.5589    0.0000 C   0  0  0  0  0  0  0  0  0  0  0  0
    1.5691    3.3839    0.0000 H   0  0  0  0  0  0  0  0  0  0  0  0
    3.3422    1.4091    0.0000 H   0  0  0  0  0  0  0  0  0  0  0  0
    4.0828    1.4091    0.0000 H   0  0  0  0  0  0  0  0  0  0  0  0
    5.8559    3.3839    0.0000 H   0  0  0  0  0  0  0  0  0  0  0  0
    6.2001    1.4091    0.0000 H   0  0  0  0  0  0  0  0  0  0  0  0
    6.9406    1.4091    0.0000 H   0  0  0  0  0  0  0  0  0  0  0  0
    7.6551    3.2961    0.0000 H   0  0  0  0  0  0  0  0  0  0  0  0
    6.9146    3.2961    0.0000 H   0  0  0  0  0  0  0  0  0  0  0  0
    7.6291    1.4091    0.0000 H   0  0  0  0  0  0  0  0  0  0  0  0
    8.3696    1.4091    0.0000 H   0  0  0  0  0  0  0  0  0  0  0  0
    9.1263    1.8444    0.0000 H   0  0  0  0  0  0  0  0  0  0  0  0
    9.4283    2.9714    0.0000 H   0  0  0  0  0  0  0  0  0  0  0  0
    8.3013    3.2733    0.0000 H   0  0  0  0  0  0  0  0  0  0  0  0
  1  2  3  0  0  0  0
  2  3  1  0  0  0  0
  3  4  1  0  0  0  0
  4  5  1  0  0  0  0
  5  6  2  0  0  0  0
  5  7  1  0  0  0  0
  7  8  1  0  0  0  0
  8  9  1  0  0  0  0
  9 10  1  0  0  0  0
 10 11  1  0  0  0  0
  1 12  1  0  0  0  0
  3 13  1  0  0  0  0
  3 14  1  0  0  0  0
  7 15  1  0  0  0  0
  8 16  1  0  0  0  0
  8 17  1  0  0  0  0
  9 18  1  0  0  0  0
  9 19  1  0  0  0  0
 10 20  1  0  0  0  0
 10 21  1  0  0  0  0
 11 22  1  0  0  0  0
 11 23  1  0  0  0  0
 11 24  1  0  0  0  0
M  END
> <id>
4298

> <casrn>
76114-73-3

> <smiles (First)>


> <Molecular weight>
155.19432067871094

> <name>
unnamed [76114-73-3]

> <Outcome>
1

> <Molecule (RDKit Mol) (InChI Code)>
InChI=1S/C8H13NO2/c1-3-5-6-9-8(10)11-7-4-2/h2H,3,5-7H2,1H3,(H,9,10)

> <reference>
ECHA

> <molecule_form>
A

$$$$

  Mrv1812 01171911372D          

  9  8  0  0  0  0            999 V2000
    2.0625   -0.7145    0.0000 C   0  0  0  0  0  0  0  0  0  0  0  0
    1.2375   -0.7145    0.0000 C   0  0  0  0  0  0  0  0  0  0  0  0
    0.8250   -1.4290    0.0000 O   0  0  0  0  0  0  0  0  0  0  0  0
    0.8250   -0.0000    0.0000 O   0  0  0  0  0  0  0  0  0  0  0  0
    0.0000   -0.0000    0.0000 O   0  0  0  0  0  0  0  0  0  0  0  0
    2.0625   -1.5395    0.0000 H   0  0  0  0  0  0  0  0  0  0  0  0
    2.8875   -0.7145    0.0000 H   0  0  0  0  0  0  0  0  0  0  0  0
    2.0625    0.1105    0.0000 H   0  0  0  0  0  0  0  0  0  0  0  0
   -0.4125    0.7144    0.0000 H   0  0  0  0  0  0  0  0  0  0  0  0
  1  2  1  0  0  0  0
  2  3  2  0  0  0  0
  2  4  1  0  0  0  0
  4  5  1  0  0  0  0
  1  6  1  0  0  0  0
  1  7  1  0  0  0  0
  1  8  1  0  0  0  0
  5  9  1  0  0  0  0
M  END
> <id>
3123; 3122; 3120; 3121; 3119

> <casrn>
79-21-0

> <smiles (First)>


> <Molecular weight>
76.05136108398438

> <name>
ethaneperoxoic acid

> <Outcome>
1

> <Molecule (RDKit Mol) (InChI Code)>
InChI=1S/C2H4O3/c1-2(3)5-4/h4H,1H3

> <reference>
ECHA

> <molecule_form>
A

$$$$

  Mrv1812 01171911372D          

 24 23  0  0  0  0            999 V2000
    1.0461    1.4289    0.0000 C   0  0  0  0  0  0  0  0  0  0  0  0
    1.7605    1.8414    0.0000 N   0  0  0  0  0  0  0  0  0  0  0  0
    1.7605    2.6664    0.0000 C   0  0  0  0  0  0  0  0  0  0  0  0
    2.4750    1.4289    0.0000 C   0  0  0  0  0  0  0  0  0  0  0  0
    2.4750    0.6039    0.0000 S   0  0  0  0  0  0  0  0  0  0  0  0
    3.1895    1.8414    0.0000 S   0  0  0  0  0  0  0  0  0  0  0  0
    3.9040    1.4289    0.0000 S   0  0  0  0  0  0  0  0  0  0  0  0
    4.6184    1.8414    0.0000 C   0  0  0  0  0  0  0  0  0  0  0  0
    4.6184    2.6664    0.0000 S   0  0  0  0  0  0  0  0  0  0  0  0
    5.3329    1.4289    0.0000 N   0  0  0  0  0  0  0  0  0  0  0  0
    6.0474    1.8414    0.0000 C   0  0  0  0  0  0  0  0  0  0  0  0
    5.3329    0.6039    0.0000 C   0  0  0  0  0  0  0  0  0  0  0  0
    0.6336    2.1434    0.0000 H   0  0  0  0  0  0  0  0  0  0  0  0
    0.3316    1.0164    0.0000 H   0  0  0  0  0  0  0  0  0  0  0  0
    1.4586    0.7144    0.0000 H   0  0  0  0  0  0  0  0  0  0  0  0
    2.5855    2.6664    0.0000 H   0  0  0  0  0  0  0  0  0  0  0  0
    1.7605    3.4914    0.0000 H   0  0  0  0  0  0  0  0  0  0  0  0
    0.9355    2.6664    0.0000 H   0  0  0  0  0  0  0  0  0  0  0  0
    6.4599    1.1269    0.0000 H   0  0  0  0  0  0  0  0  0  0  0  0
    6.7618    2.2539    0.0000 H   0  0  0  0  0  0  0  0  0  0  0  0
    5.6349    2.5559    0.0000 H   0  0  0  0  0  0  0  0  0  0  0  0
    4.5079    0.6039    0.0000 H   0  0  0  0  0  0  0  0  0  0  0  0
    5.3329   -0.2211    0.0000 H   0  0  0  0  0  0  0  0  0  0  0  0
    6.1579    0.6039    0.0000 H   0  0  0  0  0  0  0  0  0  0  0  0
  1  2  1  0  0  0  0
  2  3  1  0  0  0  0
  2  4  1  0  0  0  0
  4  5  2  0  0  0  0
  4  6  1  0  0  0  0
  6  7  1  0  0  0  0
  7  8  1  0  0  0  0
  8  9  2  0  0  0  0
  8 10  1  0  0  0  0
 10 11  1  0  0  0  0
 10 12  1  0  0  0  0
  1 13  1  0  0  0  0
  1 14  1  0  0  0  0
  1 15  1  0  0  0  0
  3 16  1  0  0  0  0
  3 17  1  0  0  0  0
  3 18  1  0  0  0  0
 11 19  1  0  0  0  0
 11 20  1  0  0  0  0
 11 21  1  0  0  0  0
 12 22  1  0  0  0  0
 12 23  1  0  0  0  0
 12 24  1  0  0  0  0
M  END
> <id>
2560

> <casrn>
137-26-8

> <smiles (First)>


> <Molecular weight>
240.43287658691406

> <name>
[disulfanediylbis(carbonothioylnitrilo)]tetramethane

> <Outcome>
1

> <Molecule (RDKit Mol) (InChI Code)>
InChI=1S/C6H12N2S4/c1-7(2)5(9)11-12-6(10)8(3)4/h1-4H3

> <reference>
ECHA

> <molecule_form>
A

$$$$

  Mrv1812 01171911372D          

 29 30  0  0  0  0            999 V2000
   -2.0596    0.4307    0.0000 O   0  0  0  0  0  0  0  0  0  0  0  0
   -1.3452    0.0182    0.0000 C   0  0  0  0  0  0  0  0  0  0  0  0
   -0.6307   -0.3943    0.0000 N   0  0  0  0  0  0  0  0  0  0  0  0
   -0.6307   -1.2193    0.0000 C   0  0  0  0  0  0  0  0  0  0  0  0
    0.0838   -1.6318    0.0000 C   0  0  0  0  0  0  0  0  0  0  0  0
    0.0838   -2.4568    0.0000 C   0  0  0  0  0  0  0  0  0  0  0  0
   -0.6307   -2.8693    0.0000 C   0  0  0  0  0  0  0  0  0  0  0  0
   -0.6307   -3.6943    0.0000 C   0  0  0  0  0  0  0  0  0  0  0  0
    0.0838   -4.1068    0.0000 C   0  0  0  0  0  0  0  0  0  0  0  0
    0.7982   -3.6943    0.0000 C   0  0  0  0  0  0  0  0  0  0  0  0
    1.5127   -4.1068    0.0000 C   0  0  0  0  0  0  0  0  0  0  0  0
    1.5127   -4.9318    0.0000 C   0  0  0  0  0  0  0  0  0  0  0  0
    0.7982   -5.3443    0.0000 C   0  0  0  0  0  0  0  0  0  0  0  0
    0.0838   -4.9318    0.0000 C   0  0  0  0  0  0  0  0  0  0  0  0
   -0.6307   -5.3443    0.0000 N   0  0  0  0  0  0  0  0  0  0  0  0
   -0.6307   -6.1693    0.0000 C   0  0  0  0  0  0  0  0  0  0  0  0
   -0.6307   -6.9943    0.0000 O   0  0  0  0  0  0  0  0  0  0  0  0
   -1.3452   -2.4568    0.0000 C   0  0  0  0  0  0  0  0  0  0  0  0
   -1.3452   -1.6318    0.0000 C   0  0  0  0  0  0  0  0  0  0  0  0
    0.7982   -1.2193    0.0000 H   0  0  0  0  0  0  0  0  0  0  0  0
    0.7982   -2.8693    0.0000 H   0  0  0  0  0  0  0  0  0  0  0  0
   -1.4543   -3.7423    0.0000 H   0  0  0  0  0  0  0  0  0  0  0  0
   -1.0840   -4.3836    0.0000 H   0  0  0  0  0  0  0  0  0  0  0  0
    0.0838   -3.2818    0.0000 H   0  0  0  0  0  0  0  0  0  0  0  0
    2.2272   -3.6943    0.0000 H   0  0  0  0  0  0  0  0  0  0  0  0
    2.2272   -5.3443    0.0000 H   0  0  0  0  0  0  0  0  0  0  0  0
    0.7982   -6.1693    0.0000 H   0  0  0  0  0  0  0  0  0  0  0  0
   -2.0596   -2.8693    0.0000 H   0  0  0  0  0  0  0  0  0  0  0  0
   -2.0596   -1.2193    0.0000 H   0  0  0  0  0  0  0  0  0  0  0  0
  1  2  2  0  0  0  0
  2  3  2  0  0  0  0
  3  4  1  0  0  0  0
  4  5  4  0  0  0  0
  5  6  4  0  0  0  0
  6  7  4  0  0  0  0
  7  8  1  0  0  0  0
  8  9  1  0  0  0  0
  9 10  4  0  0  0  0
 10 11  4  0  0  0  0
 11 12  4  0  0  0  0
 12 13  4  0  0  0  0
 13 14  4  0  0  0  0
  9 14  4  0  0  0  0
 14 15  1  0  0  0  0
 15 16  2  0  0  0  0
 16 17  2  0  0  0  0
  7 18  4  0  0  0  0
 18 19  4  0  0  0  0
  4 19  4  0  0  0  0
  5 20  1  0  0  0  0
  6 21  1  0  0  0  0
  8 22  1  0  0  0  0
  8 23  1  0  0  0  0
 10 24  1  0  0  0  0
 11 25  1  0  0  0  0
 12 26  1  0  0  0  0
 13 27  1  0  0  0  0
 18 28  1  0  0  0  0
 19 29  1  0  0  0  0
M  END
> <id>
1170

> <casrn>
5873-54-1

> <smiles (First)>


> <Molecular weight>
250.25210571289062

> <name>
1-isocyanato-2-(4-isocyanatobenzyl)benzene

> <Outcome>
1

> <Molecule (RDKit Mol) (InChI Code)>
InChI=1S/C15H10N2O2/c18-10-16-14-7-5-12(6-8-14)9-13-3-1-2-4-15(13)17-11-19/h1-8H,9H2

> <reference>
ECHA

> <molecule_form>
A

$$$$

  Mrv1812 01171911372D          

 14 14  0  0  0  0            999 V2000
   -0.7145    2.8875    0.0000 O   0  0  0  0  0  0  0  0  0  0  0  0
   -0.0000    2.4750    0.0000 C   0  0  0  0  0  0  0  0  0  0  0  0
    0.7145    2.0625    0.0000 N   0  0  0  0  0  0  0  0  0  0  0  0
    0.7145    1.2375    0.0000 C   0  0  0  0  0  0  0  0  0  0  0  0
    1.4289    0.8250    0.0000 C   0  0  0  0  0  0  0  0  0  0  0  0
    1.4289    0.0000    0.0000 C   0  0  0  0  0  0  0  0  0  0  0  0
    0.7145   -0.4125    0.0000 C   0  0  0  0  0  0  0  0  0  0  0  0
    0.7145   -1.2375    0.0000 Cl  0  0  0  0  0  0  0  0  0  0  0  0
   -0.0000    0.0000    0.0000 C   0  0  0  0  0  0  0  0  0  0  0  0
   -0.7145   -0.4125    0.0000 Cl  0  0  0  0  0  0  0  0  0  0  0  0
   -0.0000    0.8250    0.0000 C   0  0  0  0  0  0  0  0  0  0  0  0
    2.1434    1.2375    0.0000 H   0  0  0  0  0  0  0  0  0  0  0  0
    2.1434   -0.4125    0.0000 H   0  0  0  0  0  0  0  0  0  0  0  0
   -0.7145    1.2375    0.0000 H   0  0  0  0  0  0  0  0  0  0  0  0
  1  2  2  0  0  0  0
  2  3  2  0  0  0  0
  3  4  1  0  0  0  0
  4  5  4  0  0  0  0
  5  6  4  0  0  0  0
  6  7  4  0  0  0  0
  7  8  1  0  0  0  0
  7  9  4  0  0  0  0
  9 10  1  0  0  0  0
  9 11  4  0  0  0  0
  4 11  4  0  0  0  0
  5 12  1  0  0  0  0
  6 13  1  0  0  0  0
 11 14  1  0  0  0  0
M  END
> <id>
930; 929; 931

> <casrn>
102-36-3

> <smiles (First)>


> <Molecular weight>
188.0108184814453

> <name>
1,2-dichloro-4-isocyanatobenzene

> <Outcome>
1

> <Molecule (RDKit Mol) (InChI Code)>
InChI=1S/C7H3Cl2NO/c8-6-2-1-5(10-4-11)3-7(6)9/h1-3H

> <reference>
ECHA

> <molecule_form>
V; A

$$$$

  Mrv1812 01171911372D          

 20 20  0  0  0  0            999 V2000
    1.9580    1.3463    0.0000 C   0  0  0  0  0  0  0  0  0  0  0  0
    1.2435    0.9338    0.0000 N   0  0  0  0  0  0  0  0  0  0  0  0
    1.2435    0.1088    0.0000 C   0  0  0  0  0  0  0  0  0  0  0  0
    0.5290   -0.3037    0.0000 C   0  0  0  0  0  0  0  0  0  0  0  0
   -0.1854    0.1088    0.0000 C   0  0  0  0  0  0  0  0  0  0  0  0
   -0.1854    0.9338    0.0000 C   0  0  0  0  0  0  0  0  0  0  0  0
    0.5290    1.3463    0.0000 C   0  0  0  0  0  0  0  0  0  0  0  0
    2.3705    0.6319    0.0000 H   0  0  0  0  0  0  0  0  0  0  0  0
    2.6725    1.7588    0.0000 H   0  0  0  0  0  0  0  0  0  0  0  0
    1.5455    2.0608    0.0000 H   0  0  0  0  0  0  0  0  0  0  0  0
    1.6969   -0.5804    0.0000 H   0  0  0  0  0  0  0  0  0  0  0  0
    2.0671    0.0609    0.0000 H   0  0  0  0  0  0  0  0  0  0  0  0
    0.1588   -1.0409    0.0000 H   0  0  0  0  0  0  0  0  0  0  0  0
    0.8993   -1.0409    0.0000 H   0  0  0  0  0  0  0  0  0  0  0  0
   -1.0090    0.0609    0.0000 H   0  0  0  0  0  0  0  0  0  0  0  0
   -0.6388   -0.5804    0.0000 H   0  0  0  0  0  0  0  0  0  0  0  0
   -0.6388    1.6231    0.0000 H   0  0  0  0  0  0  0  0  0  0  0  0
   -1.0090    0.9818    0.0000 H   0  0  0  0  0  0  0  0  0  0  0  0
    0.8993    2.0836    0.0000 H   0  0  0  0  0  0  0  0  0  0  0  0
    0.1588    2.0836    0.0000 H   0  0  0  0  0  0  0  0  0  0  0  0
  1  2  1  0  0  0  0
  2  3  1  0  0  0  0
  3  4  1  0  0  0  0
  4  5  1  0  0  0  0
  5  6  1  0  0  0  0
  6  7  1  0  0  0  0
  2  7  1  0  0  0  0
  1  8  1  0  0  0  0
  1  9  1  0  0  0  0
  1 10  1  0  0  0  0
  3 11  1  0  0  0  0
  3 12  1  0  0  0  0
  4 13  1  0  0  0  0
  4 14  1  0  0  0  0
  5 15  1  0  0  0  0
  5 16  1  0  0  0  0
  6 17  1  0  0  0  0
  6 18  1  0  0  0  0
  7 19  1  0  0  0  0
  7 20  1  0  0  0  0
M  END
> <id>
1202

> <casrn>
626-67-5

> <smiles (First)>


> <Molecular weight>
99.17411804199219

> <name>
1-methylpiperidine

> <Outcome>
1

> <Molecule (RDKit Mol) (InChI Code)>
InChI=1S/C6H13N/c1-7-5-3-2-4-6-7/h2-6H2,1H3

> <reference>
ECHA

> <molecule_form>
V

$$$$

  Mrv1812 01171911372D          

 14 13  0  0  0  0            999 V2000
    1.2375    0.7145    0.0000 C   0  0  0  0  0  0  0  0  0  0  0  0
    0.8250   -0.0000    0.0000 C   0  0  0  0  0  0  0  0  0  0  0  0
    1.2375   -0.7145    0.0000 C   0  0  0  0  0  0  0  0  0  0  0  0
   -0.0000   -0.0000    0.0000 C   0  0  0  0  0  0  0  0  0  0  0  0
   -0.4125   -0.7145    0.0000 C   0  0  0  0  0  0  0  0  0  0  0  0
   -0.0000   -1.4289    0.0000 O   0  0  0  0  0  0  0  0  0  0  0  0
    1.9520    0.3020    0.0000 H   0  0  0  0  0  0  0  0  0  0  0  0
    1.6500    1.4289    0.0000 H   0  0  0  0  0  0  0  0  0  0  0  0
    0.5230    1.1270    0.0000 H   0  0  0  0  0  0  0  0  0  0  0  0
    0.5230   -1.1270    0.0000 H   0  0  0  0  0  0  0  0  0  0  0  0
    1.6500   -1.4289    0.0000 H   0  0  0  0  0  0  0  0  0  0  0  0
    1.9520   -0.3020    0.0000 H   0  0  0  0  0  0  0  0  0  0  0  0
   -0.4125    0.7145    0.0000 H   0  0  0  0  0  0  0  0  0  0  0  0
   -1.2375   -0.7145    0.0000 H   0  0  0  0  0  0  0  0  0  0  0  0
  1  2  1  0  0  0  0
  2  3  1  0  0  0  0
  2  4  2  0  0  0  0
  4  5  1  0  0  0  0
  5  6  2  0  0  0  0
  1  7  1  0  0  0  0
  1  8  1  0  0  0  0
  1  9  1  0  0  0  0
  3 10  1  0  0  0  0
  3 11  1  0  0  0  0
  3 12  1  0  0  0  0
  4 13  1  0  0  0  0
  5 14  1  0  0  0  0
M  END
> <id>
1785

> <casrn>
107-86-8

> <smiles (First)>


> <Molecular weight>
84.11642456054688

> <name>
3-methylbut-2-enal

> <Outcome>
1

> <Molecule (RDKit Mol) (InChI Code)>
InChI=1S/C5H8O/c1-5(2)3-4-6/h3-4H,1-2H3

> <reference>
ECHA

> <molecule_form>
V

$$$$

  Mrv1812 01171911372D          

 15 14  0  0  0  0            999 V2000
    1.7605    1.8390    0.0000 O   0  0  0  0  0  0  0  0  0  0  0  0
    2.4750    1.4265    0.0000 C   0  0  0  0  0  0  0  0  0  0  0  0
    3.1895    1.8390    0.0000 C   0  0  0  0  0  0  0  0  0  0  0  0
    3.9039    1.4265    0.0000 C   0  0  0  0  0  0  0  0  0  0  0  0
    4.6184    1.8390    0.0000 C   0  0  0  0  0  0  0  0  0  0  0  0
    5.3329    1.4265    0.0000 C   0  0  0  0  0  0  0  0  0  0  0  0
    6.0474    1.8390    0.0000 O   0  0  0  0  0  0  0  0  0  0  0  0
    2.4750    0.6015    0.0000 H   0  0  0  0  0  0  0  0  0  0  0  0
    3.5597    2.5763    0.0000 H   0  0  0  0  0  0  0  0  0  0  0  0
    2.8192    2.5763    0.0000 H   0  0  0  0  0  0  0  0  0  0  0  0
    3.5337    0.6893    0.0000 H   0  0  0  0  0  0  0  0  0  0  0  0
    4.2742    0.6893    0.0000 H   0  0  0  0  0  0  0  0  0  0  0  0
    4.9887    2.5763    0.0000 H   0  0  0  0  0  0  0  0  0  0  0  0
    4.2482    2.5763    0.0000 H   0  0  0  0  0  0  0  0  0  0  0  0
    5.3329    0.6015    0.0000 H   0  0  0  0  0  0  0  0  0  0  0  0
  1  2  2  0  0  0  0
  2  3  1  0  0  0  0
  3  4  1  0  0  0  0
  4  5  1  0  0  0  0
  5  6  1  0  0  0  0
  6  7  2  0  0  0  0
  2  8  1  0  0  0  0
  3  9  1  0  0  0  0
  3 10  1  0  0  0  0
  4 11  1  0  0  0  0
  4 12  1  0  0  0  0
  5 13  1  0  0  0  0
  5 14  1  0  0  0  0
  6 15  1  0  0  0  0
M  END
> <id>
3704; 3712; 3709

> <casrn>
111-30-8

> <smiles (First)>


> <Molecular weight>
100.1158218383789

> <name>
pentanedial

> <Outcome>
1

> <Molecule (RDKit Mol) (InChI Code)>
InChI=1S/C5H8O2/c6-4-2-1-3-5-7/h4-5H,1-3H2

> <reference>
ECHA

> <molecule_form>
A

$$$$

  Mrv1812 01171911372D          

 29 30  0  0  0  0            999 V2000
    0.6853    0.3697    0.0000 O   0  0  0  0  0  0  0  0  0  0  0  0
    1.3997   -0.0428    0.0000 C   0  0  0  0  0  0  0  0  0  0  0  0
    2.1142   -0.4553    0.0000 N   0  0  0  0  0  0  0  0  0  0  0  0
    2.1142   -1.2803    0.0000 C   0  0  0  0  0  0  0  0  0  0  0  0
    2.8287   -1.6928    0.0000 C   0  0  0  0  0  0  0  0  0  0  0  0
    2.8287   -2.5178    0.0000 C   0  0  0  0  0  0  0  0  0  0  0  0
    2.1142   -2.9303    0.0000 C   0  0  0  0  0  0  0  0  0  0  0  0
    2.1142   -3.7553    0.0000 C   0  0  0  0  0  0  0  0  0  0  0  0
    1.3997   -4.1678    0.0000 C   0  0  0  0  0  0  0  0  0  0  0  0
    1.3997   -4.9928    0.0000 C   0  0  0  0  0  0  0  0  0  0  0  0
    0.6853   -5.4053    0.0000 C   0  0  0  0  0  0  0  0  0  0  0  0
   -0.0292   -4.9928    0.0000 C   0  0  0  0  0  0  0  0  0  0  0  0
   -0.7437   -5.4053    0.0000 N   0  0  0  0  0  0  0  0  0  0  0  0
   -0.7437   -6.2303    0.0000 C   0  0  0  0  0  0  0  0  0  0  0  0
   -0.7437   -7.0553    0.0000 O   0  0  0  0  0  0  0  0  0  0  0  0
   -0.0292   -4.1678    0.0000 C   0  0  0  0  0  0  0  0  0  0  0  0
    0.6853   -3.7553    0.0000 C   0  0  0  0  0  0  0  0  0  0  0  0
    1.3997   -2.5178    0.0000 C   0  0  0  0  0  0  0  0  0  0  0  0
    1.3997   -1.6928    0.0000 C   0  0  0  0  0  0  0  0  0  0  0  0
    3.5432   -1.2803    0.0000 H   0  0  0  0  0  0  0  0  0  0  0  0
    3.5432   -2.9303    0.0000 H   0  0  0  0  0  0  0  0  0  0  0  0
    2.5676   -4.4445    0.0000 H   0  0  0  0  0  0  0  0  0  0  0  0
    2.9378   -3.8032    0.0000 H   0  0  0  0  0  0  0  0  0  0  0  0
    2.1142   -5.4053    0.0000 H   0  0  0  0  0  0  0  0  0  0  0  0
    0.6853   -6.2303    0.0000 H   0  0  0  0  0  0  0  0  0  0  0  0
   -0.7437   -3.7553    0.0000 H   0  0  0  0  0  0  0  0  0  0  0  0
    0.6853   -2.9303    0.0000 H   0  0  0  0  0  0  0  0  0  0  0  0
    0.6853   -2.1053    0.0000 H   0  0  0  0  0  0  0  0  0  0  0  0
    0.9872   -0.9783    0.0000 H   0  0  0  0  0  0  0  0  0  0  0  0
  1  2  2  0  0  0  0
  2  3  2  0  0  0  0
  3  4  1  0  0  0  0
  4  5  4  0  0  0  0
  5  6  4  0  0  0  0
  6  7  4  0  0  0  0
  7  8  1  0  0  0  0
  8  9  1  0  0  0  0
  9 10  4  0  0  0  0
 10 11  4  0  0  0  0
 11 12  4  0  0  0  0
 12 13  1  0  0  0  0
 13 14  2  0  0  0  0
 14 15  2  0  0  0  0
 12 16  4  0  0  0  0
 16 17  4  0  0  0  0
  9 17  4  0  0  0  0
  7 18  4  0  0  0  0
 18 19  4  0  0  0  0
  4 19  4  0  0  0  0
  5 20  1  0  0  0  0
  6 21  1  0  0  0  0
  8 22  1  0  0  0  0
  8 23  1  0  0  0  0
 10 24  1  0  0  0  0
 11 25  1  0  0  0  0
 16 26  1  0  0  0  0
 17 27  1  0  0  0  0
 18 28  1  0  0  0  0
 19 29  1  0  0  0  0
M  END
> <id>
1179

> <casrn>
101-68-8

> <smiles (First)>


> <Molecular weight>
250.25210571289062

> <name>
1-isocyanato-4-[(4-isocyanatophenyl)methyl]benzene

> <Outcome>
1

> <Molecule (RDKit Mol) (InChI Code)>
InChI=1S/C15H10N2O2/c18-10-16-14-5-1-12(2-6-14)9-13-3-7-15(8-4-13)17-11-19/h1-8H,9H2

> <reference>
ECHA

> <molecule_form>
A

$$$$

  Mrv1812 01171911372D          

 30 31  0  0  0  0            999 V2000
   -0.6196    9.3089    0.0000 Cl  0  0  0  0  0  0  0  0  0  0  0  0
   -0.6196    8.4839    0.0000 C   0  0  0  0  0  0  0  0  0  0  0  0
    0.0948    8.0714    0.0000 C   0  0  0  0  0  0  0  0  0  0  0  0
    0.0948    7.2464    0.0000 C   0  0  0  0  0  0  0  0  0  0  0  0
   -0.6196    6.8339    0.0000 C   0  0  0  0  0  0  0  0  0  0  0  0
   -0.6196    6.0089    0.0000 C   0  0  0  0  0  0  0  0  0  0  0  0
    0.0948    5.5964    0.0000 N   0  0  0  0  0  0  0  0  0  0  0  0
    0.0948    4.7714    0.0000 C   0  0  0  0  0  0  0  0  0  0  0  0
    0.7623    4.2865    0.0000 C   0  0  0  0  0  0  0  0  0  0  0  0
    0.5073    3.5018    0.0000 C   0  0  0  0  0  0  0  0  0  0  0  0
   -0.3177    3.5018    0.0000 C   0  0  0  0  0  0  0  0  0  0  0  0
   -0.5726    4.2865    0.0000 C   0  0  0  0  0  0  0  0  0  0  0  0
   -1.3341    7.2464    0.0000 C   0  0  0  0  0  0  0  0  0  0  0  0
   -1.3341    8.0714    0.0000 C   0  0  0  0  0  0  0  0  0  0  0  0
    0.8093    8.4839    0.0000 H   0  0  0  0  0  0  0  0  0  0  0  0
    0.8093    6.8339    0.0000 H   0  0  0  0  0  0  0  0  0  0  0  0
   -1.4433    5.9609    0.0000 H   0  0  0  0  0  0  0  0  0  0  0  0
   -1.0730    5.3196    0.0000 H   0  0  0  0  0  0  0  0  0  0  0  0
    0.8093    6.0089    0.0000 H   0  0  0  0  0  0  0  0  0  0  0  0
   -0.6403    5.1459    0.0000 H   0  0  0  0  0  0  0  0  0  0  0  0
    1.5747    4.1432    0.0000 H   0  0  0  0  0  0  0  0  0  0  0  0
    1.3354    4.8799    0.0000 H   0  0  0  0  0  0  0  0  0  0  0  0
    0.6221    2.6849    0.0000 H   0  0  0  0  0  0  0  0  0  0  0  0
    1.2488    3.1402    0.0000 H   0  0  0  0  0  0  0  0  0  0  0  0
   -1.0592    3.1402    0.0000 H   0  0  0  0  0  0  0  0  0  0  0  0
   -0.4325    2.6849    0.0000 H   0  0  0  0  0  0  0  0  0  0  0  0
   -1.3844    4.4333    0.0000 H   0  0  0  0  0  0  0  0  0  0  0  0
   -1.2665    3.8402    0.0000 H   0  0  0  0  0  0  0  0  0  0  0  0
   -2.0486    6.8339    0.0000 H   0  0  0  0  0  0  0  0  0  0  0  0
   -2.0486    8.4839    0.0000 H   0  0  0  0  0  0  0  0  0  0  0  0
  1  2  1  0  0  0  0
  2  3  4  0  0  0  0
  3  4  4  0  0  0  0
  4  5  4  0  0  0  0
  5  6  1  0  0  0  0
  6  7  1  0  0  0  0
  7  8  1  0  0  0  0
  8  9  1  0  0  0  0
  9 10  1  0  0  0  0
 10 11  1  0  0  0  0
 11 12  1  0  0  0  0
  8 12  1  0  0  0  0
  5 13  4  0  0  0  0
 13 14  4  0  0  0  0
  2 14  4  0  0  0  0
  3 15  1  0  0  0  0
  4 16  1  0  0  0  0
  6 17  1  0  0  0  0
  6 18  1  0  0  0  0
  7 19  1  0  0  0  0
  8 20  1  0  0  0  0
  9 21  1  0  0  0  0
  9 22  1  0  0  0  0
 10 23  1  0  0  0  0
 10 24  1  0  0  0  0
 11 25  1  0  0  0  0
 11 26  1  0  0  0  0
 12 27  1  0  0  0  0
 12 28  1  0  0  0  0
 13 29  1  0  0  0  0
 14 30  1  0  0  0  0
M  END
> <id>
2395

> <casrn>
66063-15-8

> <smiles (First)>


> <Molecular weight>
209.71514892578125

> <name>
N-(4-chlorobenzyl)cyclopentanamine

> <Outcome>
1

> <Molecule (RDKit Mol) (InChI Code)>
InChI=1S/C12H16ClN/c13-11-7-5-10(6-8-11)9-14-12-3-1-2-4-12/h5-8,12,14H,1-4,9H2

> <reference>
ECHA

> <molecule_form>
A

$$$$

  Mrv1812 01171911372D          

  8  7  0  0  0  0            999 V2000
    0.8250    1.4289    0.0000 C   0  0  0  0  0  0  0  0  0  0  0  0
    1.2375    0.7144    0.0000 O   0  0  0  0  0  0  0  0  0  0  0  0
    0.8250   -0.0000    0.0000 C   0  0  0  0  0  0  0  0  0  0  0  0
    1.2375   -0.7145    0.0000 O   0  0  0  0  0  0  0  0  0  0  0  0
    0.0000   -0.0000    0.0000 Cl  0  0  0  0  0  0  0  0  0  0  0  0
    1.5395    1.8414    0.0000 H   0  0  0  0  0  0  0  0  0  0  0  0
    0.4125    2.1434    0.0000 H   0  0  0  0  0  0  0  0  0  0  0  0
    0.1105    1.0164    0.0000 H   0  0  0  0  0  0  0  0  0  0  0  0
  1  2  1  0  0  0  0
  2  3  1  0  0  0  0
  3  4  2  0  0  0  0
  3  5  1  0  0  0  0
  1  6  1  0  0  0  0
  1  7  1  0  0  0  0
  1  8  1  0  0  0  0
M  END
> <id>
3462; 3463

> <casrn>
79-22-1

> <smiles (First)>


> <Molecular weight>
94.49701690673828

> <name>
methyl chlorocarbonate

> <Outcome>
1

> <Molecule (RDKit Mol) (InChI Code)>
InChI=1S/C2H3ClO2/c1-5-2(3)4/h1H3

> <reference>
ECHA

> <molecule_form>
V

$$$$

  Mrv1812 01171911372D          

 29 28  0  0  0  0            999 V2000
    2.9980    2.5571    0.0000 C   0  0  0  0  0  0  0  0  0  0  0  0
    3.7125    2.1446    0.0000 C   0  0  0  0  0  0  0  0  0  0  0  0
    4.4270    2.5571    0.0000 C   0  0  0  0  0  0  0  0  0  0  0  0
    5.1414    2.1446    0.0000 C   0  0  0  0  0  0  0  0  0  0  0  0
    5.8559    2.5571    0.0000 C   0  0  0  0  0  0  0  0  0  0  0  0
    6.5704    2.1446    0.0000 C   0  0  0  0  0  0  0  0  0  0  0  0
    7.2849    2.5571    0.0000 C   0  0  0  0  0  0  0  0  0  0  0  0
    7.9993    2.1446    0.0000 C   0  0  0  0  0  0  0  0  0  0  0  0
    8.7138    2.5571    0.0000 C   0  0  0  0  0  0  0  0  0  0  0  0
    3.4105    3.2716    0.0000 H   0  0  0  0  0  0  0  0  0  0  0  0
    2.2836    2.9696    0.0000 H   0  0  0  0  0  0  0  0  0  0  0  0
    2.5855    1.8426    0.0000 H   0  0  0  0  0  0  0  0  0  0  0  0
    3.3422    1.4074    0.0000 H   0  0  0  0  0  0  0  0  0  0  0  0
    4.0828    1.4074    0.0000 H   0  0  0  0  0  0  0  0  0  0  0  0
    4.7972    3.2944    0.0000 H   0  0  0  0  0  0  0  0  0  0  0  0
    4.0567    3.2944    0.0000 H   0  0  0  0  0  0  0  0  0  0  0  0
    4.7712    1.4074    0.0000 H   0  0  0  0  0  0  0  0  0  0  0  0
    5.5117    1.4074    0.0000 H   0  0  0  0  0  0  0  0  0  0  0  0
    6.2262    3.2944    0.0000 H   0  0  0  0  0  0  0  0  0  0  0  0
    5.4857    3.2944    0.0000 H   0  0  0  0  0  0  0  0  0  0  0  0
    6.2001    1.4074    0.0000 H   0  0  0  0  0  0  0  0  0  0  0  0
    6.9406    1.4074    0.0000 H   0  0  0  0  0  0  0  0  0  0  0  0
    7.6551    3.2944    0.0000 H   0  0  0  0  0  0  0  0  0  0  0  0
    6.9146    3.2944    0.0000 H   0  0  0  0  0  0  0  0  0  0  0  0
    7.6291    1.4074    0.0000 H   0  0  0  0  0  0  0  0  0  0  0  0
    8.3696    1.4074    0.0000 H   0  0  0  0  0  0  0  0  0  0  0  0
    9.1263    1.8426    0.0000 H   0  0  0  0  0  0  0  0  0  0  0  0
    9.4283    2.9696    0.0000 H   0  0  0  0  0  0  0  0  0  0  0  0
    8.3013    3.2716    0.0000 H   0  0  0  0  0  0  0  0  0  0  0  0
  1  2  1  0  0  0  0
  2  3  1  0  0  0  0
  3  4  1  0  0  0  0
  4  5  1  0  0  0  0
  5  6  1  0  0  0  0
  6  7  1  0  0  0  0
  7  8  1  0  0  0  0
  8  9  1  0  0  0  0
  1 10  1  0  0  0  0
  1 11  1  0  0  0  0
  1 12  1  0  0  0  0
  2 13  1  0  0  0  0
  2 14  1  0  0  0  0
  3 15  1  0  0  0  0
  3 16  1  0  0  0  0
  4 17  1  0  0  0  0
  4 18  1  0  0  0  0
  5 19  1  0  0  0  0
  5 20  1  0  0  0  0
  6 21  1  0  0  0  0
  6 22  1  0  0  0  0
  7 23  1  0  0  0  0
  7 24  1  0  0  0  0
  8 25  1  0  0  0  0
  8 26  1  0  0  0  0
  9 27  1  0  0  0  0
  9 28  1  0  0  0  0
  9 29  1  0  0  0  0
M  END
> <id>
3532

> <casrn>
111-84-2

> <smiles (First)>


> <Molecular weight>
128.25509643554688

> <name>
nonane

> <Outcome>
1

> <Molecule (RDKit Mol) (InChI Code)>
InChI=1S/C9H20/c1-3-5-7-9-8-6-4-2/h3-9H2,1-2H3

> <reference>
ECHA

> <molecule_form>
V

$$$$

  Mrv1812 01171911372D          

 21 20  0  0  0  0            999 V2000
    1.0461    1.4305    0.0000 C   0  0  0  0  0  0  0  0  0  0  0  0
    1.7605    1.8430    0.0000 C   0  0  0  0  0  0  0  0  0  0  0  0
    2.4750    1.4305    0.0000 C   0  0  0  0  0  0  0  0  0  0  0  0
    2.4750    0.6055    0.0000 O   0  0  0  0  0  0  0  0  0  0  0  0
    3.1895    1.8430    0.0000 O   0  0  0  0  0  0  0  0  0  0  0  0
    3.9039    1.4305    0.0000 C   0  0  0  0  0  0  0  0  0  0  0  0
    4.6184    1.8430    0.0000 C   0  0  0  0  0  0  0  0  0  0  0  0
    5.3329    1.4305    0.0000 C   0  0  0  0  0  0  0  0  0  0  0  0
    6.0474    1.8430    0.0000 C   0  0  0  0  0  0  0  0  0  0  0  0
    0.3316    1.8430    0.0000 H   0  0  0  0  0  0  0  0  0  0  0  0
    1.0461    0.6055    0.0000 H   0  0  0  0  0  0  0  0  0  0  0  0
    1.7605    2.6680    0.0000 H   0  0  0  0  0  0  0  0  0  0  0  0
    3.5337    0.6933    0.0000 H   0  0  0  0  0  0  0  0  0  0  0  0
    4.2742    0.6933    0.0000 H   0  0  0  0  0  0  0  0  0  0  0  0
    4.9887    2.5803    0.0000 H   0  0  0  0  0  0  0  0  0  0  0  0
    4.2482    2.5803    0.0000 H   0  0  0  0  0  0  0  0  0  0  0  0
    4.9626    0.6933    0.0000 H   0  0  0  0  0  0  0  0  0  0  0  0
    5.7031    0.6933    0.0000 H   0  0  0  0  0  0  0  0  0  0  0  0
    6.4599    1.1286    0.0000 H   0  0  0  0  0  0  0  0  0  0  0  0
    6.7618    2.2555    0.0000 H   0  0  0  0  0  0  0  0  0  0  0  0
    5.6349    2.5575    0.0000 H   0  0  0  0  0  0  0  0  0  0  0  0
  1  2  2  0  0  0  0
  2  3  1  0  0  0  0
  3  4  2  0  0  0  0
  3  5  1  0  0  0  0
  5  6  1  0  0  0  0
  6  7  1  0  0  0  0
  7  8  1  0  0  0  0
  8  9  1  0  0  0  0
  1 10  1  0  0  0  0
  1 11  1  0  0  0  0
  2 12  1  0  0  0  0
  6 13  1  0  0  0  0
  6 14  1  0  0  0  0
  7 15  1  0  0  0  0
  7 16  1  0  0  0  0
  8 17  1  0  0  0  0
  8 18  1  0  0  0  0
  9 19  1  0  0  0  0
  9 20  1  0  0  0  0
  9 21  1  0  0  0  0
M  END
> <id>
2729; 2719; 2724; 2726; 2727; 2728; 2722; 2723

> <casrn>
141-32-2

> <smiles (First)>


> <Molecular weight>
128.16897583007812

> <name>
butyl prop-2-enoate

> <Outcome>
1

> <Molecule (RDKit Mol) (InChI Code)>
InChI=1S/C7H12O2/c1-3-5-6-9-7(8)4-2/h4H,2-3,5-6H2,1H3

> <reference>
ECHA

> <molecule_form>
V

$$$$

  Mrv1812 01171911372D          

 16 16  0  0  0  0            999 V2000
   -0.3006    2.9926    0.0000 C   0  0  0  0  0  0  0  0  0  0  0  0
   -0.3006    2.1676    0.0000 C   0  0  0  0  0  0  0  0  0  0  0  0
    0.4139    1.7551    0.0000 C   0  0  0  0  0  0  0  0  0  0  0  0
    0.4139    0.9301    0.0000 C   0  0  0  0  0  0  0  0  0  0  0  0
    0.8264    0.2156    0.0000 C   0  0  0  0  0  0  0  0  0  0  0  0
    0.0014    0.2156    0.0000 O   0  0  0  0  0  0  0  0  0  0  0  0
    0.5244    2.9926    0.0000 H   0  0  0  0  0  0  0  0  0  0  0  0
   -0.3006    3.8176    0.0000 H   0  0  0  0  0  0  0  0  0  0  0  0
   -1.1256    2.9926    0.0000 H   0  0  0  0  0  0  0  0  0  0  0  0
   -1.1242    2.1196    0.0000 H   0  0  0  0  0  0  0  0  0  0  0  0
   -0.7539    1.4783    0.0000 H   0  0  0  0  0  0  0  0  0  0  0  0
    1.2375    1.8030    0.0000 H   0  0  0  0  0  0  0  0  0  0  0  0
    0.8672    2.4443    0.0000 H   0  0  0  0  0  0  0  0  0  0  0  0
   -0.3830    1.1436    0.0000 H   0  0  0  0  0  0  0  0  0  0  0  0
    1.1966   -0.5217    0.0000 H   0  0  0  0  0  0  0  0  0  0  0  0
    1.6500    0.2636    0.0000 H   0  0  0  0  0  0  0  0  0  0  0  0
  1  2  1  0  0  0  0
  2  3  1  0  0  0  0
  3  4  1  0  0  0  0
  4  5  1  0  0  0  0
  5  6  1  0  0  0  0
  4  6  1  0  0  0  0
  1  7  1  0  0  0  0
  1  8  1  0  0  0  0
  1  9  1  0  0  0  0
  2 10  1  0  0  0  0
  2 11  1  0  0  0  0
  3 12  1  0  0  0  0
  3 13  1  0  0  0  0
  4 14  1  0  0  0  0
  5 15  1  0  0  0  0
  5 16  1  0  0  0  0
M  END
> <id>
1700

> <casrn>
1003-14-1

> <smiles (First)>


> <Molecular weight>
86.1323013305664

> <name>
2-propyloxirane

> <Outcome>
1

> <Molecule (RDKit Mol) (InChI Code)>
InChI=1S/C5H10O/c1-2-3-5-4-6-5/h5H,2-4H2,1H3

> <reference>
ECHA

> <molecule_form>
V

$$$$

  Mrv1812 01171911372D          

 30 29  0  0  0  0            999 V2000
    2.2836    2.1446    0.0000 C   0  0  0  0  0  0  0  0  0  0  0  0
    2.9980    2.5571    0.0000 C   0  0  0  0  0  0  0  0  0  0  0  0
    3.7125    2.1446    0.0000 C   0  0  0  0  0  0  0  0  0  0  0  0
    4.4270    2.5571    0.0000 C   0  0  0  0  0  0  0  0  0  0  0  0
    5.1414    2.1446    0.0000 C   0  0  0  0  0  0  0  0  0  0  0  0
    5.8559    2.5571    0.0000 C   0  0  0  0  0  0  0  0  0  0  0  0
    6.5704    2.1446    0.0000 C   0  0  0  0  0  0  0  0  0  0  0  0
    7.2849    2.5571    0.0000 C   0  0  0  0  0  0  0  0  0  0  0  0
    7.9993    2.1446    0.0000 C   0  0  0  0  0  0  0  0  0  0  0  0
    8.7138    2.5571    0.0000 C   0  0  0  0  0  0  0  0  0  0  0  0
    1.5691    2.5571    0.0000 H   0  0  0  0  0  0  0  0  0  0  0  0
    2.2836    1.3196    0.0000 H   0  0  0  0  0  0  0  0  0  0  0  0
    2.9980    3.3821    0.0000 H   0  0  0  0  0  0  0  0  0  0  0  0
    3.3422    1.4073    0.0000 H   0  0  0  0  0  0  0  0  0  0  0  0
    4.0828    1.4073    0.0000 H   0  0  0  0  0  0  0  0  0  0  0  0
    4.7972    3.2943    0.0000 H   0  0  0  0  0  0  0  0  0  0  0  0
    4.0567    3.2943    0.0000 H   0  0  0  0  0  0  0  0  0  0  0  0
    4.7712    1.4073    0.0000 H   0  0  0  0  0  0  0  0  0  0  0  0
    5.5117    1.4073    0.0000 H   0  0  0  0  0  0  0  0  0  0  0  0
    6.2262    3.2943    0.0000 H   0  0  0  0  0  0  0  0  0  0  0  0
    5.4857    3.2943    0.0000 H   0  0  0  0  0  0  0  0  0  0  0  0
    6.2001    1.4073    0.0000 H   0  0  0  0  0  0  0  0  0  0  0  0
    6.9406    1.4073    0.0000 H   0  0  0  0  0  0  0  0  0  0  0  0
    7.6551    3.2943    0.0000 H   0  0  0  0  0  0  0  0  0  0  0  0
    6.9146    3.2943    0.0000 H   0  0  0  0  0  0  0  0  0  0  0  0
    7.6291    1.4073    0.0000 H   0  0  0  0  0  0  0  0  0  0  0  0
    8.3696    1.4073    0.0000 H   0  0  0  0  0  0  0  0  0  0  0  0
    9.1263    1.8426    0.0000 H   0  0  0  0  0  0  0  0  0  0  0  0
    9.4283    2.9696    0.0000 H   0  0  0  0  0  0  0  0  0  0  0  0
    8.3013    3.2716    0.0000 H   0  0  0  0  0  0  0  0  0  0  0  0
  1  2  2  0  0  0  0
  2  3  1  0  0  0  0
  3  4  1  0  0  0  0
  4  5  1  0  0  0  0
  5  6  1  0  0  0  0
  6  7  1  0  0  0  0
  7  8  1  0  0  0  0
  8  9  1  0  0  0  0
  9 10  1  0  0  0  0
  1 11  1  0  0  0  0
  1 12  1  0  0  0  0
  2 13  1  0  0  0  0
  3 14  1  0  0  0  0
  3 15  1  0  0  0  0
  4 16  1  0  0  0  0
  4 17  1  0  0  0  0
  5 18  1  0  0  0  0
  5 19  1  0  0  0  0
  6 20  1  0  0  0  0
  6 21  1  0  0  0  0
  7 22  1  0  0  0  0
  7 23  1  0  0  0  0
  8 24  1  0  0  0  0
  8 25  1  0  0  0  0
  9 26  1  0  0  0  0
  9 27  1  0  0  0  0
 10 28  1  0  0  0  0
 10 29  1  0  0  0  0
 10 30  1  0  0  0  0
M  END
> <id>
1893; 2869; 2863

> <casrn>
68037-01-4

> <smiles (First)>


> <Molecular weight>
140.26580810546875

> <name>
8-ethyl-10,12-diheptyl-9,11,13-trimethylhenicosane; 8-ethyl-10-heptyl-9,11-dimethylnonadecane

> <Outcome>
0

> <Molecule (RDKit Mol) (InChI Code)>
InChI=1S/C10H20/c1-3-5-7-9-10-8-6-4-2/h3H,1,4-10H2,2H3

> <reference>
ECHA

> <molecule_form>
V; A

$$$$

  Mrv1812 01171911372D          

 13 12  0  0  0  0            999 V2000
    2.1659   -0.7281    0.0000 C   0  0  0  0  0  0  0  0  0  0  0  0
    1.3409   -0.7281    0.0000 C   0  0  0  0  0  0  0  0  0  0  0  0
    0.9284   -1.4425    0.0000 C   0  0  0  0  0  0  0  0  0  0  0  0
    0.9284   -0.0136    0.0000 C   0  0  0  0  0  0  0  0  0  0  0  0
    0.1034   -0.0136    0.0000 O   0  0  0  0  0  0  0  0  0  0  0  0
    2.1659   -1.5531    0.0000 H   0  0  0  0  0  0  0  0  0  0  0  0
    2.9909   -0.7281    0.0000 H   0  0  0  0  0  0  0  0  0  0  0  0
    2.1659    0.0969    0.0000 H   0  0  0  0  0  0  0  0  0  0  0  0
    1.7534   -1.4425    0.0000 H   0  0  0  0  0  0  0  0  0  0  0  0
    0.3450   -0.8592    0.0000 H   0  0  0  0  0  0  0  0  0  0  0  0
    0.2139   -1.8550    0.0000 H   0  0  0  0  0  0  0  0  0  0  0  0
    1.1419   -2.2394    0.0000 H   0  0  0  0  0  0  0  0  0  0  0  0
    1.3409    0.7009    0.0000 H   0  0  0  0  0  0  0  0  0  0  0  0
  1  2  1  0  0  0  0
  2  3  1  0  0  0  0
  2  4  1  0  0  0  0
  4  5  2  0  0  0  0
  1  6  1  0  0  0  0
  1  7  1  0  0  0  0
  1  8  1  0  0  0  0
  2  9  1  0  0  0  0
  3 10  1  0  0  0  0
  3 11  1  0  0  0  0
  3 12  1  0  0  0  0
  4 13  1  0  0  0  0
M  END
> <id>
1662

> <casrn>
78-84-2

> <smiles (First)>


> <Molecular weight>
72.10572052001953

> <name>
2-methylpropanal

> <Outcome>
0

> <Molecule (RDKit Mol) (InChI Code)>
InChI=1S/C4H8O/c1-4(2)3-5/h3-4H,1-2H3

> <reference>
ECHA

> <molecule_form>
V

$$$$

  Mrv1812 01171911372D          

 33 32  0  0  0  0            999 V2000
    2.9146    2.4767    0.0000 C   0  0  0  0  0  0  0  0  0  0  0  0
    3.6291    2.0642    0.0000 C   0  0  0  0  0  0  0  0  0  0  0  0
    3.6291    1.2392    0.0000 C   0  0  0  0  0  0  0  0  0  0  0  0
    4.3436    2.4767    0.0000 C   0  0  0  0  0  0  0  0  0  0  0  0
    5.0580    2.0642    0.0000 C   0  0  0  0  0  0  0  0  0  0  0  0
    5.7725    2.4767    0.0000 O   0  0  0  0  0  0  0  0  0  0  0  0
    6.4870    2.0642    0.0000 C   0  0  0  0  0  0  0  0  0  0  0  0
    7.2015    2.4767    0.0000 C   0  0  0  0  0  0  0  0  0  0  0  0
    7.9159    2.0642    0.0000 C   0  0  0  0  0  0  0  0  0  0  0  0
    8.6304    2.4767    0.0000 C   0  0  0  0  0  0  0  0  0  0  0  0
    7.9159    1.2392    0.0000 C   0  0  0  0  0  0  0  0  0  0  0  0
    3.3271    3.1911    0.0000 H   0  0  0  0  0  0  0  0  0  0  0  0
    2.2002    2.8892    0.0000 H   0  0  0  0  0  0  0  0  0  0  0  0
    2.5021    1.7622    0.0000 H   0  0  0  0  0  0  0  0  0  0  0  0
    2.9146    1.6517    0.0000 H   0  0  0  0  0  0  0  0  0  0  0  0
    3.0457    0.6558    0.0000 H   0  0  0  0  0  0  0  0  0  0  0  0
    4.0416    0.5247    0.0000 H   0  0  0  0  0  0  0  0  0  0  0  0
    4.4260    1.4527    0.0000 H   0  0  0  0  0  0  0  0  0  0  0  0
    4.7138    3.2139    0.0000 H   0  0  0  0  0  0  0  0  0  0  0  0
    3.9733    3.2139    0.0000 H   0  0  0  0  0  0  0  0  0  0  0  0
    5.5548    1.4055    0.0000 H   0  0  0  0  0  0  0  0  0  0  0  0
    5.0580    2.8892    0.0000 H   0  0  0  0  0  0  0  0  0  0  0  0
    6.1167    1.3269    0.0000 H   0  0  0  0  0  0  0  0  0  0  0  0
    6.8572    1.3269    0.0000 H   0  0  0  0  0  0  0  0  0  0  0  0
    7.5717    3.2139    0.0000 H   0  0  0  0  0  0  0  0  0  0  0  0
    6.8312    3.2139    0.0000 H   0  0  0  0  0  0  0  0  0  0  0  0
    7.9159    2.8892    0.0000 H   0  0  0  0  0  0  0  0  0  0  0  0
    8.8439    1.6798    0.0000 H   0  0  0  0  0  0  0  0  0  0  0  0
    9.4554    2.4767    0.0000 H   0  0  0  0  0  0  0  0  0  0  0  0
    8.8439    3.2736    0.0000 H   0  0  0  0  0  0  0  0  0  0  0  0
    7.0909    1.2392    0.0000 H   0  0  0  0  0  0  0  0  0  0  0  0
    7.9159    0.4142    0.0000 H   0  0  0  0  0  0  0  0  0  0  0  0
    8.7409    1.2392    0.0000 H   0  0  0  0  0  0  0  0  0  0  0  0
  1  2  1  0  0  0  0
  2  3  1  0  0  0  0
  2  4  1  0  0  0  0
  4  5  1  0  0  0  0
  5  6  1  0  0  0  0
  6  7  1  0  0  0  0
  7  8  1  0  0  0  0
  8  9  1  0  0  0  0
  9 10  1  0  0  0  0
  9 11  1  0  0  0  0
  1 12  1  0  0  0  0
  1 13  1  0  0  0  0
  1 14  1  0  0  0  0
  2 15  1  0  0  0  0
  3 16  1  0  0  0  0
  3 17  1  0  0  0  0
  3 18  1  0  0  0  0
  4 19  1  0  0  0  0
  4 20  1  0  0  0  0
  5 21  1  0  0  0  0
  5 22  1  0  0  0  0
  7 23  1  0  0  0  0
  7 24  1  0  0  0  0
  8 25  1  0  0  0  0
  8 26  1  0  0  0  0
  9 27  1  0  0  0  0
 10 28  1  0  0  0  0
 10 29  1  0  0  0  0
 10 30  1  0  0  0  0
 11 31  1  0  0  0  0
 11 32  1  0  0  0  0
 11 33  1  0  0  0  0
M  END
> <id>
873

> <casrn>
544-01-4

> <smiles (First)>


> <Molecular weight>
158.2810821533203

> <name>
1,1'-oxybis(3-methylbutane)

> <Outcome>
1

> <Molecule (RDKit Mol) (InChI Code)>
InChI=1S/C10H22O/c1-9(2)5-7-11-8-6-10(3)4/h9-10H,5-8H2,1-4H3

> <reference>
ECHA

> <molecule_form>
V

$$$$

  Mrv1812 01171911372D          

 23 23  0  0  0  0            999 V2000
    0.7557    2.1621    0.0000 C   0  0  0  0  0  0  0  0  0  0  0  0
    0.7557    1.3371    0.0000 C   0  0  0  0  0  0  0  0  0  0  0  0
    1.4701    0.9246    0.0000 C   0  0  0  0  0  0  0  0  0  0  0  0
    1.4701    0.0996    0.0000 C   0  0  0  0  0  0  0  0  0  0  0  0
    2.1846   -0.3129    0.0000 O   0  0  0  0  0  0  0  0  0  0  0  0
    0.7557   -0.3129    0.0000 C   0  0  0  0  0  0  0  0  0  0  0  0
    0.7557   -1.1379    0.0000 C   0  0  0  0  0  0  0  0  0  0  0  0
    0.0412    0.0996    0.0000 C   0  0  0  0  0  0  0  0  0  0  0  0
   -0.6733   -0.3129    0.0000 C   0  0  0  0  0  0  0  0  0  0  0  0
    0.0412    0.9246    0.0000 C   0  0  0  0  0  0  0  0  0  0  0  0
   -0.6733    1.3371    0.0000 O   0  0  0  0  0  0  0  0  0  0  0  0
    1.5807    2.1621    0.0000 H   0  0  0  0  0  0  0  0  0  0  0  0
    0.7557    2.9871    0.0000 H   0  0  0  0  0  0  0  0  0  0  0  0
   -0.0693    2.1621    0.0000 H   0  0  0  0  0  0  0  0  0  0  0  0
    2.1846    1.3371    0.0000 H   0  0  0  0  0  0  0  0  0  0  0  0
    2.1846   -1.1379    0.0000 H   0  0  0  0  0  0  0  0  0  0  0  0
   -0.0693   -1.1379    0.0000 H   0  0  0  0  0  0  0  0  0  0  0  0
    0.7557   -1.9629    0.0000 H   0  0  0  0  0  0  0  0  0  0  0  0
    1.5807   -1.1379    0.0000 H   0  0  0  0  0  0  0  0  0  0  0  0
   -1.0858    0.4016    0.0000 H   0  0  0  0  0  0  0  0  0  0  0  0
   -1.3878   -0.7254    0.0000 H   0  0  0  0  0  0  0  0  0  0  0  0
   -0.2608   -1.0274    0.0000 H   0  0  0  0  0  0  0  0  0  0  0  0
   -0.6733    2.1621    0.0000 H   0  0  0  0  0  0  0  0  0  0  0  0
  1  2  1  0  0  0  0
  2  3  4  0  0  0  0
  3  4  4  0  0  0  0
  4  5  1  0  0  0  0
  4  6  4  0  0  0  0
  6  7  1  0  0  0  0
  6  8  4  0  0  0  0
  8  9  1  0  0  0  0
  8 10  4  0  0  0  0
  2 10  4  0  0  0  0
 10 11  1  0  0  0  0
  1 12  1  0  0  0  0
  1 13  1  0  0  0  0
  1 14  1  0  0  0  0
  3 15  1  0  0  0  0
  5 16  1  0  0  0  0
  7 17  1  0  0  0  0
  7 18  1  0  0  0  0
  7 19  1  0  0  0  0
  9 20  1  0  0  0  0
  9 21  1  0  0  0  0
  9 22  1  0  0  0  0
 11 23  1  0  0  0  0
M  END
> <id>
1279

> <casrn>
700-13-0

> <smiles (First)>


> <Molecular weight>
152.1903839111328

> <name>
2,3,5-trimethylbenzene-1,4-diol

> <Outcome>
1

> <Molecule (RDKit Mol) (InChI Code)>
InChI=1S/C9H12O2/c1-5-4-8(10)6(2)7(3)9(5)11/h4,10-11H,1-3H3

> <reference>
ECHA

> <molecule_form>
A

$$$$

  Mrv1812 01171911372D          

 43 43  0  0  0  0            999 V2000
   -0.1217    2.4531    0.0000 C   0  0  0  0  0  0  0  0  0  0  0  0
    0.5928    2.0406    0.0000 C   0  0  0  0  0  0  0  0  0  0  0  0
    1.3073    2.4531    0.0000 C   0  0  0  0  0  0  0  0  0  0  0  0
    0.5928    1.2156    0.0000 C   0  0  0  0  0  0  0  0  0  0  0  0
    1.3073    0.8031    0.0000 C   0  0  0  0  0  0  0  0  0  0  0  0
    1.3073   -0.0219    0.0000 C   0  0  0  0  0  0  0  0  0  0  0  0
    2.0217   -0.4344    0.0000 C   0  0  0  0  0  0  0  0  0  0  0  0
    2.0217   -1.2594    0.0000 C   0  0  0  0  0  0  0  0  0  0  0  0
    2.7362   -0.0219    0.0000 C   0  0  0  0  0  0  0  0  0  0  0  0
    0.5928   -0.4344    0.0000 C   0  0  0  0  0  0  0  0  0  0  0  0
    0.5928   -1.2594    0.0000 N   0  0  0  0  0  0  0  0  0  0  0  0
    1.3073   -1.6719    0.0000 C   0  0  0  0  0  0  0  0  0  0  0  0
    2.0217   -2.0844    0.0000 O   0  0  0  0  0  0  0  0  0  0  0  0
   -0.1217   -0.0219    0.0000 C   0  0  0  0  0  0  0  0  0  0  0  0
   -0.8361   -0.4344    0.0000 C   0  0  0  0  0  0  0  0  0  0  0  0
   -1.5506   -0.0219    0.0000 C   0  0  0  0  0  0  0  0  0  0  0  0
   -0.8361   -1.2594    0.0000 C   0  0  0  0  0  0  0  0  0  0  0  0
   -0.1217    0.8031    0.0000 C   0  0  0  0  0  0  0  0  0  0  0  0
   -0.8361    1.2156    0.0000 N   0  0  0  0  0  0  0  0  0  0  0  0
   -0.8361    2.0406    0.0000 C   0  0  0  0  0  0  0  0  0  0  0  0
   -0.8361    2.8656    0.0000 O   0  0  0  0  0  0  0  0  0  0  0  0
    0.5103    2.9834    0.0000 H   0  0  0  0  0  0  0  0  0  0  0  0
    0.0216    3.2656    0.0000 H   0  0  0  0  0  0  0  0  0  0  0  0
   -0.1217    1.6281    0.0000 H   0  0  0  0  0  0  0  0  0  0  0  0
    1.3073    1.6281    0.0000 H   0  0  0  0  0  0  0  0  0  0  0  0
    2.0151    2.0293    0.0000 H   0  0  0  0  0  0  0  0  0  0  0  0
    2.0345    2.8427    0.0000 H   0  0  0  0  0  0  0  0  0  0  0  0
    1.3466    3.2772    0.0000 H   0  0  0  0  0  0  0  0  0  0  0  0
    2.1323    0.8031    0.0000 H   0  0  0  0  0  0  0  0  0  0  0  0
    1.3073   -0.8469    0.0000 H   0  0  0  0  0  0  0  0  0  0  0  0
    2.6051   -1.8428    0.0000 H   0  0  0  0  0  0  0  0  0  0  0  0
    2.8467   -1.2594    0.0000 H   0  0  0  0  0  0  0  0  0  0  0  0
    2.6051   -0.6760    0.0000 H   0  0  0  0  0  0  0  0  0  0  0  0
    3.4928   -0.3509    0.0000 H   0  0  0  0  0  0  0  0  0  0  0  0
    3.2172    0.6483    0.0000 H   0  0  0  0  0  0  0  0  0  0  0  0
    2.1824    0.5896    0.0000 H   0  0  0  0  0  0  0  0  0  0  0  0
   -0.8361    0.3906    0.0000 H   0  0  0  0  0  0  0  0  0  0  0  0
   -1.7641    0.7750    0.0000 H   0  0  0  0  0  0  0  0  0  0  0  0
   -2.3756   -0.0219    0.0000 H   0  0  0  0  0  0  0  0  0  0  0  0
   -1.7641   -0.8188    0.0000 H   0  0  0  0  0  0  0  0  0  0  0  0
   -1.6611   -1.2594    0.0000 H   0  0  0  0  0  0  0  0  0  0  0  0
   -0.8361   -2.0844    0.0000 H   0  0  0  0  0  0  0  0  0  0  0  0
   -0.0111   -1.2594    0.0000 H   0  0  0  0  0  0  0  0  0  0  0  0
  1  2  1  0  0  0  0
  2  3  1  0  0  0  0
  2  4  1  0  0  0  0
  4  5  4  0  0  0  0
  5  6  4  0  0  0  0
  6  7  1  0  0  0  0
  7  8  1  0  0  0  0
  7  9  1  0  0  0  0
  6 10  4  0  0  0  0
 10 11  1  0  0  0  0
 11 12  2  0  0  0  0
 12 13  2  0  0  0  0
 10 14  4  0  0  0  0
 14 15  1  0  0  0  0
 15 16  1  0  0  0  0
 15 17  1  0  0  0  0
 14 18  4  0  0  0  0
  4 18  4  0  0  0  0
 18 19  1  0  0  0  0
 19 20  2  0  0  0  0
 20 21  2  0  0  0  0
  1 22  1  0  0  0  0
  1 23  1  0  0  0  0
  1 24  1  0  0  0  0
  2 25  1  0  0  0  0
  3 26  1  0  0  0  0
  3 27  1  0  0  0  0
  3 28  1  0  0  0  0
  5 29  1  0  0  0  0
  7 30  1  0  0  0  0
  8 31  1  0  0  0  0
  8 32  1  0  0  0  0
  8 33  1  0  0  0  0
  9 34  1  0  0  0  0
  9 35  1  0  0  0  0
  9 36  1  0  0  0  0
 15 37  1  0  0  0  0
 16 38  1  0  0  0  0
 16 39  1  0  0  0  0
 16 40  1  0  0  0  0
 17 41  1  0  0  0  0
 17 42  1  0  0  0  0
 17 43  1  0  0  0  0
M  END
> <id>
1295

> <casrn>
2162-73-4

> <smiles (First)>


> <Molecular weight>
286.3687744140625

> <name>
2,4-diisocyanato-1,3,5-triisopropylbenzene

> <Outcome>
1

> <Molecule (RDKit Mol) (InChI Code)>
InChI=1S/C17H22N2O2/c1-10(2)13-7-14(11(3)4)17(19-9-21)15(12(5)6)16(13)18-8-20/h7,10-12H,1-6H3

> <reference>
ECHA

> <molecule_form>
A

$$$$

  Mrv1812 01171911372D          

 34 34  0  0  0  0            999 V2000
   -0.2034    2.1204    0.0000 C   0  0  0  0  0  0  0  0  0  0  0  0
    0.6216    2.1204    0.0000 C   0  0  0  0  0  0  0  0  0  0  0  0
    1.4466    2.1204    0.0000 C   0  0  0  0  0  0  0  0  0  0  0  0
    0.6216    2.9454    0.0000 N   0  0  0  0  0  0  0  0  0  0  0  0
    1.3361    3.3579    0.0000 C   0  0  0  0  0  0  0  0  0  0  0  0
    2.0506    3.7704    0.0000 O   0  0  0  0  0  0  0  0  0  0  0  0
    0.6216    1.2954    0.0000 C   0  0  0  0  0  0  0  0  0  0  0  0
    1.3361    0.8829    0.0000 C   0  0  0  0  0  0  0  0  0  0  0  0
    1.3361    0.0579    0.0000 C   0  0  0  0  0  0  0  0  0  0  0  0
    0.6216   -0.3546    0.0000 C   0  0  0  0  0  0  0  0  0  0  0  0
   -0.0929    0.0579    0.0000 C   0  0  0  0  0  0  0  0  0  0  0  0
   -0.8073   -0.3546    0.0000 C   0  0  0  0  0  0  0  0  0  0  0  0
   -1.2198    0.3598    0.0000 C   0  0  0  0  0  0  0  0  0  0  0  0
   -0.3948   -1.0691    0.0000 C   0  0  0  0  0  0  0  0  0  0  0  0
   -1.5218   -0.7671    0.0000 N   0  0  0  0  0  0  0  0  0  0  0  0
   -1.5218   -1.5921    0.0000 C   0  0  0  0  0  0  0  0  0  0  0  0
   -1.5218   -2.4171    0.0000 O   0  0  0  0  0  0  0  0  0  0  0  0
   -0.0929    0.8829    0.0000 C   0  0  0  0  0  0  0  0  0  0  0  0
   -0.2034    2.9454    0.0000 H   0  0  0  0  0  0  0  0  0  0  0  0
   -1.0284    2.1204    0.0000 H   0  0  0  0  0  0  0  0  0  0  0  0
   -0.2034    1.2954    0.0000 H   0  0  0  0  0  0  0  0  0  0  0  0
    1.4466    1.2954    0.0000 H   0  0  0  0  0  0  0  0  0  0  0  0
    2.2716    2.1204    0.0000 H   0  0  0  0  0  0  0  0  0  0  0  0
    1.4466    2.9454    0.0000 H   0  0  0  0  0  0  0  0  0  0  0  0
    2.1540    0.7752    0.0000 H   0  0  0  0  0  0  0  0  0  0  0  0
    2.0506   -0.3546    0.0000 H   0  0  0  0  0  0  0  0  0  0  0  0
    0.6216   -1.1796    0.0000 H   0  0  0  0  0  0  0  0  0  0  0  0
   -0.5054    0.7723    0.0000 H   0  0  0  0  0  0  0  0  0  0  0  0
   -1.6323    1.0743    0.0000 H   0  0  0  0  0  0  0  0  0  0  0  0
   -1.9343   -0.0527    0.0000 H   0  0  0  0  0  0  0  0  0  0  0  0
   -1.1093   -1.4816    0.0000 H   0  0  0  0  0  0  0  0  0  0  0  0
    0.0177   -1.7836    0.0000 H   0  0  0  0  0  0  0  0  0  0  0  0
    0.3196   -0.6566    0.0000 H   0  0  0  0  0  0  0  0  0  0  0  0
    0.6216    0.4704    0.0000 H   0  0  0  0  0  0  0  0  0  0  0  0
  1  2  1  0  0  0  0
  2  3  1  0  0  0  0
  2  4  1  0  0  0  0
  4  5  2  0  0  0  0
  5  6  2  0  0  0  0
  2  7  1  0  0  0  0
  7  8  4  0  0  0  0
  8  9  4  0  0  0  0
  9 10  4  0  0  0  0
 10 11  4  0  0  0  0
 11 12  1  0  0  0  0
 12 13  1  0  0  0  0
 12 14  1  0  0  0  0
 12 15  1  0  0  0  0
 15 16  2  0  0  0  0
 16 17  2  0  0  0  0
 11 18  4  0  0  0  0
  7 18  4  0  0  0  0
  1 19  1  0  0  0  0
  1 20  1  0  0  0  0
  1 21  1  0  0  0  0
  3 22  1  0  0  0  0
  3 23  1  0  0  0  0
  3 24  1  0  0  0  0
  8 25  1  0  0  0  0
  9 26  1  0  0  0  0
 10 27  1  0  0  0  0
 13 28  1  0  0  0  0
 13 29  1  0  0  0  0
 13 30  1  0  0  0  0
 14 31  1  0  0  0  0
 14 32  1  0  0  0  0
 14 33  1  0  0  0  0
 18 34  1  0  0  0  0
M  END
> <id>
973

> <casrn>
2778-42-9

> <smiles (First)>


> <Molecular weight>
244.28904724121094

> <name>
1,3-bis(2-isocyanatopropan-2-yl)benzene

> <Outcome>
1

> <Molecule (RDKit Mol) (InChI Code)>
InChI=1S/C14H16N2O2/c1-13(2,15-9-17)11-6-5-7-12(8-11)14(3,4)16-10-18/h5-8H,1-4H3

> <reference>
ECHA

> <molecule_form>
A

$$$$

  Mrv1812 01171911372D          

 50 49  0  0  0  0            999 V2000
    6.6906    4.7057    0.0000 C   0  0  0  0  0  0  0  0  0  0  0  0
    7.4051    4.2932    0.0000 C   0  0  0  0  0  0  0  0  0  0  0  0
    8.1196    4.7057    0.0000 C   0  0  0  0  0  0  0  0  0  0  0  0
    8.8341    4.2932    0.0000 C   0  0  0  0  0  0  0  0  0  0  0  0
    9.5485    4.7057    0.0000 C   0  0  0  0  0  0  0  0  0  0  0  0
   10.2630    4.2932    0.0000 C   0  0  0  0  0  0  0  0  0  0  0  0
   10.9775    4.7057    0.0000 C   0  0  0  0  0  0  0  0  0  0  0  0
   11.6919    4.2932    0.0000 C   0  0  0  0  0  0  0  0  0  0  0  0
   12.4064    4.7057    0.0000 C   0  0  0  0  0  0  0  0  0  0  0  0
   13.1209    4.2932    0.0000 C   0  0  0  0  0  0  0  0  0  0  0  0
   13.8354    4.7057    0.0000 C   0  0  0  0  0  0  0  0  0  0  0  0
   14.5498    4.2932    0.0000 C   0  0  0  0  0  0  0  0  0  0  0  0
   15.2643    4.7057    0.0000 C   0  0  0  0  0  0  0  0  0  0  0  0
   15.9788    4.2932    0.0000 C   0  0  0  0  0  0  0  0  0  0  0  0
   16.6932    4.7057    0.0000 C   0  0  0  0  0  0  0  0  0  0  0  0
   15.9788    3.4682    0.0000 C   0  0  0  0  0  0  0  0  0  0  0  0
    7.1031    5.4201    0.0000 H   0  0  0  0  0  0  0  0  0  0  0  0
    5.9762    5.1182    0.0000 H   0  0  0  0  0  0  0  0  0  0  0  0
    6.2781    3.9912    0.0000 H   0  0  0  0  0  0  0  0  0  0  0  0
    7.0349    3.5559    0.0000 H   0  0  0  0  0  0  0  0  0  0  0  0
    7.7754    3.5559    0.0000 H   0  0  0  0  0  0  0  0  0  0  0  0
    8.4898    5.4429    0.0000 H   0  0  0  0  0  0  0  0  0  0  0  0
    7.7493    5.4429    0.0000 H   0  0  0  0  0  0  0  0  0  0  0  0
    8.4638    3.5559    0.0000 H   0  0  0  0  0  0  0  0  0  0  0  0
    9.2043    3.5559    0.0000 H   0  0  0  0  0  0  0  0  0  0  0  0
    9.9188    5.4429    0.0000 H   0  0  0  0  0  0  0  0  0  0  0  0
    9.1783    5.4429    0.0000 H   0  0  0  0  0  0  0  0  0  0  0  0
    9.8927    3.5559    0.0000 H   0  0  0  0  0  0  0  0  0  0  0  0
   10.6333    3.5559    0.0000 H   0  0  0  0  0  0  0  0  0  0  0  0
   11.3477    5.4429    0.0000 H   0  0  0  0  0  0  0  0  0  0  0  0
   10.6072    5.4429    0.0000 H   0  0  0  0  0  0  0  0  0  0  0  0
   11.3217    3.5559    0.0000 H   0  0  0  0  0  0  0  0  0  0  0  0
   12.0622    3.5559    0.0000 H   0  0  0  0  0  0  0  0  0  0  0  0
   12.7767    5.4429    0.0000 H   0  0  0  0  0  0  0  0  0  0  0  0
   12.0362    5.4429    0.0000 H   0  0  0  0  0  0  0  0  0  0  0  0
   12.7506    3.5559    0.0000 H   0  0  0  0  0  0  0  0  0  0  0  0
   13.4911    3.5559    0.0000 H   0  0  0  0  0  0  0  0  0  0  0  0
   14.2056    5.4429    0.0000 H   0  0  0  0  0  0  0  0  0  0  0  0
   13.4651    5.4429    0.0000 H   0  0  0  0  0  0  0  0  0  0  0  0
   14.1796    3.5559    0.0000 H   0  0  0  0  0  0  0  0  0  0  0  0
   14.9201    3.5559    0.0000 H   0  0  0  0  0  0  0  0  0  0  0  0
   15.6346    5.4429    0.0000 H   0  0  0  0  0  0  0  0  0  0  0  0
   14.8940    5.4429    0.0000 H   0  0  0  0  0  0  0  0  0  0  0  0
   15.9788    5.1182    0.0000 H   0  0  0  0  0  0  0  0  0  0  0  0
   16.9068    3.9088    0.0000 H   0  0  0  0  0  0  0  0  0  0  0  0
   17.5182    4.7057    0.0000 H   0  0  0  0  0  0  0  0  0  0  0  0
   16.9068    5.5025    0.0000 H   0  0  0  0  0  0  0  0  0  0  0  0
   15.1538    3.4682    0.0000 H   0  0  0  0  0  0  0  0  0  0  0  0
   15.9788    2.6432    0.0000 H   0  0  0  0  0  0  0  0  0  0  0  0
   16.8038    3.4682    0.0000 H   0  0  0  0  0  0  0  0  0  0  0  0
  1  2  1  0  0  0  0
  2  3  1  0  0  0  0
  3  4  1  0  0  0  0
  4  5  1  0  0  0  0
  5  6  1  0  0  0  0
  6  7  1  0  0  0  0
  7  8  1  0  0  0  0
  8  9  1  0  0  0  0
  9 10  1  0  0  0  0
 10 11  1  0  0  0  0
 11 12  1  0  0  0  0
 12 13  1  0  0  0  0
 13 14  1  0  0  0  0
 14 15  1  0  0  0  0
 14 16  1  0  0  0  0
  1 17  1  0  0  0  0
  1 18  1  0  0  0  0
  1 19  1  0  0  0  0
  2 20  1  0  0  0  0
  2 21  1  0  0  0  0
  3 22  1  0  0  0  0
  3 23  1  0  0  0  0
  4 24  1  0  0  0  0
  4 25  1  0  0  0  0
  5 26  1  0  0  0  0
  5 27  1  0  0  0  0
  6 28  1  0  0  0  0
  6 29  1  0  0  0  0
  7 30  1  0  0  0  0
  7 31  1  0  0  0  0
  8 32  1  0  0  0  0
  8 33  1  0  0  0  0
  9 34  1  0  0  0  0
  9 35  1  0  0  0  0
 10 36  1  0  0  0  0
 10 37  1  0  0  0  0
 11 38  1  0  0  0  0
 11 39  1  0  0  0  0
 12 40  1  0  0  0  0
 12 41  1  0  0  0  0
 13 42  1  0  0  0  0
 13 43  1  0  0  0  0
 14 44  1  0  0  0  0
 15 45  1  0  0  0  0
 15 46  1  0  0  0  0
 15 47  1  0  0  0  0
 16 48  1  0  0  0  0
 16 49  1  0  0  0  0
 16 50  1  0  0  0  0
M  END
> <id>
308

> <casrn>
93685-80-4

> <smiles (First)>


> <Molecular weight>
226.441162109375

> <name>
-

> <Outcome>
1

> <Molecule (RDKit Mol) (InChI Code)>
InChI=1S/C16H34/c1-4-5-6-7-8-9-10-11-12-13-14-15-16(2)3/h16H,4-15H2,1-3H3

> <reference>
ECHA

> <molecule_form>
A

$$$$

  Mrv1812 01171911372D          

 12 11  0  0  0  0            999 V2000
    2.4750   -1.4289    0.0000 C   0  0  0  0  0  0  0  0  0  0  0  0
    2.0625   -0.7145    0.0000 C   0  0  0  0  0  0  0  0  0  0  0  0
    1.2375   -0.7145    0.0000 C   0  0  0  0  0  0  0  0  0  0  0  0
    0.8250   -1.4289    0.0000 O   0  0  0  0  0  0  0  0  0  0  0  0
    0.8250    0.0000    0.0000 O   0  0  0  0  0  0  0  0  0  0  0  0
    0.0000    0.0000    0.0000 C   0  0  0  0  0  0  0  0  0  0  0  0
    2.0625   -2.1434    0.0000 H   0  0  0  0  0  0  0  0  0  0  0  0
    3.3000   -1.4289    0.0000 H   0  0  0  0  0  0  0  0  0  0  0  0
    2.4750    0.0000    0.0000 H   0  0  0  0  0  0  0  0  0  0  0  0
    0.0000    0.8250    0.0000 H   0  0  0  0  0  0  0  0  0  0  0  0
   -0.8250    0.0000    0.0000 H   0  0  0  0  0  0  0  0  0  0  0  0
    0.0000   -0.8250    0.0000 H   0  0  0  0  0  0  0  0  0  0  0  0
  1  2  2  0  0  0  0
  2  3  1  0  0  0  0
  3  4  2  0  0  0  0
  3  5  1  0  0  0  0
  5  6  1  0  0  0  0
  1  7  1  0  0  0  0
  1  8  1  0  0  0  0
  2  9  1  0  0  0  0
  6 10  1  0  0  0  0
  6 11  1  0  0  0  0
  6 12  1  0  0  0  0
M  END
> <id>
3475; 3477; 3469; 3476; 3473; 3478; 3471; 3472

> <casrn>
96-33-3

> <smiles (First)>


> <Molecular weight>
86.08924102783203

> <name>
methyl prop-2-enoate

> <Outcome>
1

> <Molecule (RDKit Mol) (InChI Code)>
InChI=1S/C4H6O2/c1-3-4(5)6-2/h3H,1H2,2H3

> <reference>
ECHA

> <molecule_form>
V

$$$$

  Mrv1812 01171911372D          

 15 15  0  0  0  0            999 V2000
   -0.0020    2.4738    0.0000 Cl  0  0  0  0  0  0  0  0  0  0  0  0
    0.7125    2.0613    0.0000 C   0  0  0  0  0  0  0  0  0  0  0  0
    0.7125    1.2363    0.0000 C   0  0  0  0  0  0  0  0  0  0  0  0
    1.4269    0.8238    0.0000 C   0  0  0  0  0  0  0  0  0  0  0  0
    1.4269   -0.0012    0.0000 C   0  0  0  0  0  0  0  0  0  0  0  0
    0.7125   -0.4137    0.0000 C   0  0  0  0  0  0  0  0  0  0  0  0
   -0.0020   -0.0012    0.0000 C   0  0  0  0  0  0  0  0  0  0  0  0
   -0.0020    0.8238    0.0000 C   0  0  0  0  0  0  0  0  0  0  0  0
   -0.7165    1.2363    0.0000 Cl  0  0  0  0  0  0  0  0  0  0  0  0
    1.5361    2.1093    0.0000 H   0  0  0  0  0  0  0  0  0  0  0  0
    1.1658    2.7506    0.0000 H   0  0  0  0  0  0  0  0  0  0  0  0
    2.1414    1.2363    0.0000 H   0  0  0  0  0  0  0  0  0  0  0  0
    2.1414   -0.4137    0.0000 H   0  0  0  0  0  0  0  0  0  0  0  0
    0.7125   -1.2387    0.0000 H   0  0  0  0  0  0  0  0  0  0  0  0
   -0.7165   -0.4137    0.0000 H   0  0  0  0  0  0  0  0  0  0  0  0
  1  2  1  0  0  0  0
  2  3  1  0  0  0  0
  3  4  4  0  0  0  0
  4  5  4  0  0  0  0
  5  6  4  0  0  0  0
  6  7  4  0  0  0  0
  7  8  4  0  0  0  0
  3  8  4  0  0  0  0
  8  9  1  0  0  0  0
  2 10  1  0  0  0  0
  2 11  1  0  0  0  0
  4 12  1  0  0  0  0
  5 13  1  0  0  0  0
  6 14  1  0  0  0  0
  7 15  1  0  0  0  0
M  END
> <id>
1132

> <casrn>
611-19-8

> <smiles (First)>


> <Molecular weight>
161.02853393554688

> <name>
1-chloro-2-(chloromethyl)benzene

> <Outcome>
1

> <Molecule (RDKit Mol) (InChI Code)>
InChI=1S/C7H6Cl2/c8-5-6-3-1-2-4-7(6)9/h1-4H,5H2

> <reference>
ECHA

> <molecule_form>
A

$$$$

  Mrv1812 01171911372D          

  5  4  0  0  0  0            999 V2000
    2.8978   -1.9844    0.0000 O   0  0  0  0  0  0  0  0  0  0  0  0
    2.4853   -1.2699    0.0000 C   0  0  0  0  0  0  0  0  0  0  0  0
    1.6603   -1.2699    0.0000 O   0  0  0  0  0  0  0  0  0  0  0  0
    2.8978   -0.5554    0.0000 H   0  0  0  0  0  0  0  0  0  0  0  0
    1.2478   -0.5554    0.0000 H   0  0  0  0  0  0  0  0  0  0  0  0
  1  2  2  0  0  0  0
  2  3  1  0  0  0  0
  2  4  1  0  0  0  0
  3  5  1  0  0  0  0
M  END
> <id>
3215

> <casrn>
64-18-6

> <smiles (First)>


> <Molecular weight>
46.0253791809082

> <name>
formic acid

> <Outcome>
1

> <Molecule (RDKit Mol) (InChI Code)>
InChI=1S/CH2O2/c2-1-3/h1H,(H,2,3)

> <reference>
ECHA

> <molecule_form>
V

$$$$

  Mrv1812 01171911372D          

 23 22  0  0  0  0            999 V2000
   -0.2183    0.7787    0.0000 C   0  0  0  0  0  0  0  0  0  0  0  0
    0.4961    1.1912    0.0000 C   0  0  0  0  0  0  0  0  0  0  0  0
    1.2106    0.7787    0.0000 N   0  0  0  0  0  0  0  0  0  0  0  0
    1.2106   -0.0463    0.0000 C   0  0  0  0  0  0  0  0  0  0  0  0
    0.4961   -0.4588    0.0000 C   0  0  0  0  0  0  0  0  0  0  0  0
    1.9251    1.1912    0.0000 C   0  0  0  0  0  0  0  0  0  0  0  0
    2.6395    0.7787    0.0000 C   0  0  0  0  0  0  0  0  0  0  0  0
    3.3540    1.1912    0.0000 O   0  0  0  0  0  0  0  0  0  0  0  0
   -0.6308    1.4932    0.0000 H   0  0  0  0  0  0  0  0  0  0  0  0
   -0.9328    0.3662    0.0000 H   0  0  0  0  0  0  0  0  0  0  0  0
    0.1942    0.0643    0.0000 H   0  0  0  0  0  0  0  0  0  0  0  0
    0.8664    1.9285    0.0000 H   0  0  0  0  0  0  0  0  0  0  0  0
    0.1259    1.9285    0.0000 H   0  0  0  0  0  0  0  0  0  0  0  0
    1.6639   -0.7355    0.0000 H   0  0  0  0  0  0  0  0  0  0  0  0
    2.0342   -0.0942    0.0000 H   0  0  0  0  0  0  0  0  0  0  0  0
   -0.3218   -0.5665    0.0000 H   0  0  0  0  0  0  0  0  0  0  0  0
    0.2826   -1.2557    0.0000 H   0  0  0  0  0  0  0  0  0  0  0  0
    1.1506   -0.9610    0.0000 H   0  0  0  0  0  0  0  0  0  0  0  0
    2.2953    1.9285    0.0000 H   0  0  0  0  0  0  0  0  0  0  0  0
    1.5548    1.9285    0.0000 H   0  0  0  0  0  0  0  0  0  0  0  0
    2.2693    0.0415    0.0000 H   0  0  0  0  0  0  0  0  0  0  0  0
    3.0098    0.0415    0.0000 H   0  0  0  0  0  0  0  0  0  0  0  0
    4.0685    0.7787    0.0000 H   0  0  0  0  0  0  0  0  0  0  0  0
  1  2  1  0  0  0  0
  2  3  1  0  0  0  0
  3  4  1  0  0  0  0
  4  5  1  0  0  0  0
  3  6  1  0  0  0  0
  6  7  1  0  0  0  0
  7  8  1  0  0  0  0
  1  9  1  0  0  0  0
  1 10  1  0  0  0  0
  1 11  1  0  0  0  0
  2 12  1  0  0  0  0
  2 13  1  0  0  0  0
  4 14  1  0  0  0  0
  4 15  1  0  0  0  0
  5 16  1  0  0  0  0
  5 17  1  0  0  0  0
  5 18  1  0  0  0  0
  6 19  1  0  0  0  0
  6 20  1  0  0  0  0
  7 21  1  0  0  0  0
  7 22  1  0  0  0  0
  8 23  1  0  0  0  0
M  END
> <id>
1337

> <casrn>
100-37-8

> <smiles (First)>


> <Molecular weight>
117.18939971923828

> <name>
2-(diethylamino)ethan-1-ol

> <Outcome>
1

> <Molecule (RDKit Mol) (InChI Code)>
InChI=1S/C6H15NO/c1-3-7(4-2)5-6-8/h8H,3-6H2,1-2H3

> <reference>
ECHA

> <molecule_form>
V

$$$$

  Mrv1812 01171911372D          

 12 12  0  0  0  0            999 V2000
    0.7145    1.2375    0.0000 C   0  0  0  0  0  0  0  0  0  0  0  0
    1.4289    0.8250    0.0000 O   0  0  0  0  0  0  0  0  0  0  0  0
    1.4289    0.0000    0.0000 C   0  0  0  0  0  0  0  0  0  0  0  0
    0.7145   -0.4125    0.0000 O   0  0  0  0  0  0  0  0  0  0  0  0
    0.0000    0.0000    0.0000 C   0  0  0  0  0  0  0  0  0  0  0  0
    0.0000    0.8250    0.0000 O   0  0  0  0  0  0  0  0  0  0  0  0
    1.0847    1.9747    0.0000 H   0  0  0  0  0  0  0  0  0  0  0  0
    0.3442    1.9747    0.0000 H   0  0  0  0  0  0  0  0  0  0  0  0
    1.8823   -0.6893    0.0000 H   0  0  0  0  0  0  0  0  0  0  0  0
    2.2525   -0.0480    0.0000 H   0  0  0  0  0  0  0  0  0  0  0  0
   -0.8236   -0.0480    0.0000 H   0  0  0  0  0  0  0  0  0  0  0  0
   -0.4533   -0.6893    0.0000 H   0  0  0  0  0  0  0  0  0  0  0  0
  1  2  1  0  0  0  0
  2  3  1  0  0  0  0
  3  4  1  0  0  0  0
  4  5  1  0  0  0  0
  5  6  1  0  0  0  0
  1  6  1  0  0  0  0
  1  7  1  0  0  0  0
  1  8  1  0  0  0  0
  3  9  1  0  0  0  0
  3 10  1  0  0  0  0
  5 11  1  0  0  0  0
  5 12  1  0  0  0  0
M  END
> <id>
961

> <casrn>
110-88-3

> <smiles (First)>


> <Molecular weight>
90.07794189453125

> <name>
1,3,5-trioxane

> <Outcome>
0

> <Molecule (RDKit Mol) (InChI Code)>
InChI=1S/C3H6O3/c1-4-2-6-3-5-1/h1-3H2

> <reference>
ECHA

> <molecule_form>
V

$$$$

  Mrv1812 01171911372D          

  9  8  0  0  0  0            999 V2000
    2.0605   -0.7179    0.0000 C   0  0  0  0  0  0  0  0  0  0  0  0
    1.2355   -0.7179    0.0000 C   0  0  0  0  0  0  0  0  0  0  0  0
    0.8230   -0.0034    0.0000 C   0  0  0  0  0  0  0  0  0  0  0  0
   -0.0020   -0.0034    0.0000 Br  0  0  0  0  0  0  0  0  0  0  0  0
    2.4730   -1.4324    0.0000 H   0  0  0  0  0  0  0  0  0  0  0  0
    2.4730   -0.0034    0.0000 H   0  0  0  0  0  0  0  0  0  0  0  0
    0.8230   -1.4324    0.0000 H   0  0  0  0  0  0  0  0  0  0  0  0
    1.5123    0.4499    0.0000 H   0  0  0  0  0  0  0  0  0  0  0  0
    0.8710    0.8202    0.0000 H   0  0  0  0  0  0  0  0  0  0  0  0
  1  2  2  0  0  0  0
  2  3  1  0  0  0  0
  3  4  1  0  0  0  0
  1  5  1  0  0  0  0
  1  6  1  0  0  0  0
  2  7  1  0  0  0  0
  3  8  1  0  0  0  0
  3  9  1  0  0  0  0
M  END
> <id>
1769

> <casrn>
106-95-6

> <smiles (First)>


> <Molecular weight>
120.97579956054688

> <name>
3-bromoprop-1-ene

> <Outcome>
1

> <Molecule (RDKit Mol) (InChI Code)>
InChI=1S/C3H5Br/c1-2-3-4/h2H,1,3H2

> <reference>
ECHA

> <molecule_form>
V

$$$$

  Mrv1812 01171911372D          

 17 16  0  0  0  0            999 V2000
   -0.1913    0.7125    0.0000 C   0  0  0  0  0  0  0  0  0  0  0  0
    0.5231    1.1250    0.0000 C   0  0  0  0  0  0  0  0  0  0  0  0
    1.2376    0.7125    0.0000 O   0  0  0  0  0  0  0  0  0  0  0  0
    1.9521    1.1250    0.0000 C   0  0  0  0  0  0  0  0  0  0  0  0
    2.6666    0.7125    0.0000 C   0  0  0  0  0  0  0  0  0  0  0  0
    3.3810    1.1250    0.0000 N   0  0  0  0  0  0  0  0  0  0  0  0
   -0.6038    1.4269    0.0000 H   0  0  0  0  0  0  0  0  0  0  0  0
   -0.9058    0.3000    0.0000 H   0  0  0  0  0  0  0  0  0  0  0  0
    0.2212   -0.0020    0.0000 H   0  0  0  0  0  0  0  0  0  0  0  0
    0.8934    1.8622    0.0000 H   0  0  0  0  0  0  0  0  0  0  0  0
    0.1529    1.8622    0.0000 H   0  0  0  0  0  0  0  0  0  0  0  0
    2.3223    1.8622    0.0000 H   0  0  0  0  0  0  0  0  0  0  0  0
    1.5818    1.8622    0.0000 H   0  0  0  0  0  0  0  0  0  0  0  0
    2.2963   -0.0248    0.0000 H   0  0  0  0  0  0  0  0  0  0  0  0
    3.0368   -0.0248    0.0000 H   0  0  0  0  0  0  0  0  0  0  0  0
    4.0955    0.7125    0.0000 H   0  0  0  0  0  0  0  0  0  0  0  0
    3.3810    1.9500    0.0000 H   0  0  0  0  0  0  0  0  0  0  0  0
  1  2  1  0  0  0  0
  2  3  1  0  0  0  0
  3  4  1  0  0  0  0
  4  5  1  0  0  0  0
  5  6  1  0  0  0  0
  1  7  1  0  0  0  0
  1  8  1  0  0  0  0
  1  9  1  0  0  0  0
  2 10  1  0  0  0  0
  2 11  1  0  0  0  0
  4 12  1  0  0  0  0
  4 13  1  0  0  0  0
  5 14  1  0  0  0  0
  5 15  1  0  0  0  0
  6 16  1  0  0  0  0
  6 17  1  0  0  0  0
M  END
> <id>
1454

> <casrn>
110-76-9

> <smiles (First)>


> <Molecular weight>
90.14418029785156

> <name>
2-ethoxyethanamine

> <Outcome>
0

> <Molecule (RDKit Mol) (InChI Code)>
InChI=1S/C4H11NO/c1-2-6-4-3-5/h2-5H2,1H3

> <reference>
ECHA

> <molecule_form>
V

$$$$

  Mrv1812 01171911372D          

 14 14  0  0  0  0            999 V2000
    0.7145    2.0625    0.0000 C   0  0  0  0  0  0  0  0  0  0  0  0
    0.7145    1.2375    0.0000 C   0  0  0  0  0  0  0  0  0  0  0  0
    1.4289    0.8250    0.0000 C   0  0  0  0  0  0  0  0  0  0  0  0
    1.4289   -0.0000    0.0000 C   0  0  0  0  0  0  0  0  0  0  0  0
    0.7145   -0.4125    0.0000 C   0  0  0  0  0  0  0  0  0  0  0  0
    0.0000   -0.0000    0.0000 C   0  0  0  0  0  0  0  0  0  0  0  0
    0.0000    0.8250    0.0000 N   0  0  0  0  0  0  0  0  0  0  0  0
    1.5395    2.0625    0.0000 H   0  0  0  0  0  0  0  0  0  0  0  0
    0.7145    2.8875    0.0000 H   0  0  0  0  0  0  0  0  0  0  0  0
   -0.1105    2.0625    0.0000 H   0  0  0  0  0  0  0  0  0  0  0  0
    2.1434    1.2375    0.0000 H   0  0  0  0  0  0  0  0  0  0  0  0
    2.1434   -0.4125    0.0000 H   0  0  0  0  0  0  0  0  0  0  0  0
    0.7145   -1.2375    0.0000 H   0  0  0  0  0  0  0  0  0  0  0  0
   -0.7145   -0.4125    0.0000 H   0  0  0  0  0  0  0  0  0  0  0  0
  1  2  1  0  0  0  0
  2  3  4  0  0  0  0
  3  4  4  0  0  0  0
  4  5  4  0  0  0  0
  5  6  4  0  0  0  0
  6  7  4  0  0  0  0
  2  7  4  0  0  0  0
  1  8  1  0  0  0  0
  1  9  1  0  0  0  0
  1 10  1  0  0  0  0
  3 11  1  0  0  0  0
  4 12  1  0  0  0  0
  5 13  1  0  0  0  0
  6 14  1  0  0  0  0
M  END
> <id>
1679

> <casrn>
109-06-8

> <smiles (First)>


> <Molecular weight>
93.12648010253906

> <name>
2-methylpyridine

> <Outcome>
1

> <Molecule (RDKit Mol) (InChI Code)>
InChI=1S/C6H7N/c1-6-4-2-3-5-7-6/h2-5H,1H3

> <reference>
ECHA

> <molecule_form>
V

$$$$

  Mrv1812 01171911372D          

 16 15  0  0  0  0            999 V2000
    1.0461   -2.2539    0.0000 N   0  0  0  0  0  0  0  0  0  0  0  0
    1.7605   -1.8414    0.0000 C   0  0  0  0  0  0  0  0  0  0  0  0
    2.4750   -1.4289    0.0000 C   0  0  0  0  0  0  0  0  0  0  0  0
    3.1895   -1.8414    0.0000 C   0  0  0  0  0  0  0  0  0  0  0  0
    3.9039   -1.4289    0.0000 C   0  0  0  0  0  0  0  0  0  0  0  0
    4.6184   -1.8414    0.0000 C   0  0  0  0  0  0  0  0  0  0  0  0
    5.3329   -1.4289    0.0000 C   0  0  0  0  0  0  0  0  0  0  0  0
    6.0474   -1.0164    0.0000 N   0  0  0  0  0  0  0  0  0  0  0  0
    2.8453   -0.6917    0.0000 H   0  0  0  0  0  0  0  0  0  0  0  0
    2.1047   -0.6917    0.0000 H   0  0  0  0  0  0  0  0  0  0  0  0
    2.8192   -2.5786    0.0000 H   0  0  0  0  0  0  0  0  0  0  0  0
    3.5597   -2.5786    0.0000 H   0  0  0  0  0  0  0  0  0  0  0  0
    4.2742   -0.6917    0.0000 H   0  0  0  0  0  0  0  0  0  0  0  0
    3.5337   -0.6917    0.0000 H   0  0  0  0  0  0  0  0  0  0  0  0
    4.2482   -2.5786    0.0000 H   0  0  0  0  0  0  0  0  0  0  0  0
    4.9887   -2.5786    0.0000 H   0  0  0  0  0  0  0  0  0  0  0  0
  1  2  3  0  0  0  0
  2  3  1  0  0  0  0
  3  4  1  0  0  0  0
  4  5  1  0  0  0  0
  5  6  1  0  0  0  0
  6  7  1  0  0  0  0
  7  8  3  0  0  0  0
  3  9  1  0  0  0  0
  3 10  1  0  0  0  0
  4 11  1  0  0  0  0
  4 12  1  0  0  0  0
  5 13  1  0  0  0  0
  5 14  1  0  0  0  0
  6 15  1  0  0  0  0
  6 16  1  0  0  0  0
M  END
> <id>
3324

> <casrn>
111-69-3

> <smiles (First)>


> <Molecular weight>
108.14112091064453

> <name>
hexanedinitrile

> <Outcome>
1

> <Molecule (RDKit Mol) (InChI Code)>
InChI=1S/C6H8N2/c7-5-3-1-2-4-6-8/h1-4H2

> <reference>
ECHA

> <molecule_form>
A

$$$$

  Mrv1812 01171911372D          

 16 15  0  0  0  0            999 V2000
    2.5376   -1.4669    0.0000 C   0  0  0  0  0  0  0  0  0  0  0  0
    2.1251   -0.7525    0.0000 C   0  0  0  0  0  0  0  0  0  0  0  0
    1.3001   -0.7525    0.0000 C   0  0  0  0  0  0  0  0  0  0  0  0
    0.8876   -1.4669    0.0000 C   0  0  0  0  0  0  0  0  0  0  0  0
    0.8876   -0.0380    0.0000 C   0  0  0  0  0  0  0  0  0  0  0  0
    0.0626   -0.0380    0.0000 O   0  0  0  0  0  0  0  0  0  0  0  0
    1.8231   -1.8794    0.0000 H   0  0  0  0  0  0  0  0  0  0  0  0
    2.9501   -2.1814    0.0000 H   0  0  0  0  0  0  0  0  0  0  0  0
    3.2521   -1.0544    0.0000 H   0  0  0  0  0  0  0  0  0  0  0  0
    2.8144   -0.2991    0.0000 H   0  0  0  0  0  0  0  0  0  0  0  0
    2.1731    0.0711    0.0000 H   0  0  0  0  0  0  0  0  0  0  0  0
    1.7126   -1.4669    0.0000 H   0  0  0  0  0  0  0  0  0  0  0  0
    0.3042   -0.8836    0.0000 H   0  0  0  0  0  0  0  0  0  0  0  0
    0.1731   -1.8794    0.0000 H   0  0  0  0  0  0  0  0  0  0  0  0
    1.1011   -2.2638    0.0000 H   0  0  0  0  0  0  0  0  0  0  0  0
    1.3001    0.6765    0.0000 H   0  0  0  0  0  0  0  0  0  0  0  0
  1  2  1  0  0  0  0
  2  3  1  0  0  0  0
  3  4  1  0  0  0  0
  3  5  1  0  0  0  0
  5  6  2  0  0  0  0
  1  7  1  0  0  0  0
  1  8  1  0  0  0  0
  1  9  1  0  0  0  0
  2 10  1  0  0  0  0
  2 11  1  0  0  0  0
  3 12  1  0  0  0  0
  4 13  1  0  0  0  0
  4 14  1  0  0  0  0
  4 15  1  0  0  0  0
  5 16  1  0  0  0  0
M  END
> <id>
1514

> <casrn>
96-17-3

> <smiles (First)>


> <Molecular weight>
86.1323013305664

> <name>
2-methylbutanal

> <Outcome>
0

> <Molecule (RDKit Mol) (InChI Code)>
InChI=1S/C5H10O/c1-3-5(2)4-6/h4-5H,3H2,1-2H3

> <reference>
ECHA

> <molecule_form>
V

$$$$

  Mrv1812 01171911372D          

 47 48  0  0  0  0            999 V2000
    0.7145   -2.0609    0.0000 O   0  0  0  0  0  0  0  0  0  0  0  0
    0.7145   -1.2359    0.0000 C   0  0  0  0  0  0  0  0  0  0  0  0
    1.4289   -0.8234    0.0000 O   0  0  0  0  0  0  0  0  0  0  0  0
    2.1434   -1.2359    0.0000 C   0  0  0  0  0  0  0  0  0  0  0  0
    2.8579   -0.8234    0.0000 C   0  0  0  0  0  0  0  0  0  0  0  0
    3.5724   -1.2359    0.0000 C   0  0  0  0  0  0  0  0  0  0  0  0
    4.2868   -0.8234    0.0000 O   0  0  0  0  0  0  0  0  0  0  0  0
    5.0013   -1.2359    0.0000 C   0  0  0  0  0  0  0  0  0  0  0  0
    5.7158   -0.8234    0.0000 C   0  0  0  0  0  0  0  0  0  0  0  0
    6.4302   -1.2359    0.0000 C   0  0  0  0  0  0  0  0  0  0  0  0
    7.1447   -0.8234    0.0000 O   0  0  0  0  0  0  0  0  0  0  0  0
    7.8592   -1.2359    0.0000 C   0  0  0  0  0  0  0  0  0  0  0  0
    7.8592   -2.0609    0.0000 O   0  0  0  0  0  0  0  0  0  0  0  0
    8.5737   -0.8234    0.0000 C   0  0  0  0  0  0  0  0  0  0  0  0
    8.5737    0.0016    0.0000 C   0  0  0  0  0  0  0  0  0  0  0  0
    9.2881    0.4141    0.0000 C   0  0  0  0  0  0  0  0  0  0  0  0
   10.0026    0.0016    0.0000 C   0  0  0  0  0  0  0  0  0  0  0  0
   10.0026   -0.8234    0.0000 C   0  0  0  0  0  0  0  0  0  0  0  0
    9.2881   -1.2359    0.0000 C   0  0  0  0  0  0  0  0  0  0  0  0
    0.0000   -0.8234    0.0000 C   0  0  0  0  0  0  0  0  0  0  0  0
   -0.7145   -1.2359    0.0000 C   0  0  0  0  0  0  0  0  0  0  0  0
   -1.4289   -0.8234    0.0000 C   0  0  0  0  0  0  0  0  0  0  0  0
   -1.4289    0.0016    0.0000 C   0  0  0  0  0  0  0  0  0  0  0  0
   -0.7145    0.4141    0.0000 C   0  0  0  0  0  0  0  0  0  0  0  0
    0.0000    0.0016    0.0000 C   0  0  0  0  0  0  0  0  0  0  0  0
    1.7732   -1.9732    0.0000 H   0  0  0  0  0  0  0  0  0  0  0  0
    2.5137   -1.9732    0.0000 H   0  0  0  0  0  0  0  0  0  0  0  0
    3.2281   -0.0862    0.0000 H   0  0  0  0  0  0  0  0  0  0  0  0
    2.4876   -0.0862    0.0000 H   0  0  0  0  0  0  0  0  0  0  0  0
    3.2021   -1.9732    0.0000 H   0  0  0  0  0  0  0  0  0  0  0  0
    3.9426   -1.9732    0.0000 H   0  0  0  0  0  0  0  0  0  0  0  0
    4.6310   -1.9732    0.0000 H   0  0  0  0  0  0  0  0  0  0  0  0
    5.3716   -1.9732    0.0000 H   0  0  0  0  0  0  0  0  0  0  0  0
    6.0860   -0.0862    0.0000 H   0  0  0  0  0  0  0  0  0  0  0  0
    5.3455   -0.0862    0.0000 H   0  0  0  0  0  0  0  0  0  0  0  0
    6.0600   -1.9732    0.0000 H   0  0  0  0  0  0  0  0  0  0  0  0
    6.8005   -1.9732    0.0000 H   0  0  0  0  0  0  0  0  0  0  0  0
    7.8592    0.4141    0.0000 H   0  0  0  0  0  0  0  0  0  0  0  0
    9.2881    1.2391    0.0000 H   0  0  0  0  0  0  0  0  0  0  0  0
   10.7171    0.4141    0.0000 H   0  0  0  0  0  0  0  0  0  0  0  0
   10.7171   -1.2359    0.0000 H   0  0  0  0  0  0  0  0  0  0  0  0
    9.2881   -2.0609    0.0000 H   0  0  0  0  0  0  0  0  0  0  0  0
   -0.7145   -2.0609    0.0000 H   0  0  0  0  0  0  0  0  0  0  0  0
   -2.1434   -1.2359    0.0000 H   0  0  0  0  0  0  0  0  0  0  0  0
   -2.1434    0.4141    0.0000 H   0  0  0  0  0  0  0  0  0  0  0  0
   -0.7145    1.2391    0.0000 H   0  0  0  0  0  0  0  0  0  0  0  0
    0.7145    0.4141    0.0000 H   0  0  0  0  0  0  0  0  0  0  0  0
  1  2  2  0  0  0  0
  2  3  1  0  0  0  0
  3  4  1  0  0  0  0
  4  5  1  0  0  0  0
  5  6  1  0  0  0  0
  6  7  1  0  0  0  0
  7  8  1  0  0  0  0
  8  9  1  0  0  0  0
  9 10  1  0  0  0  0
 10 11  1  0  0  0  0
 11 12  1  0  0  0  0
 12 13  2  0  0  0  0
 12 14  1  0  0  0  0
 14 15  4  0  0  0  0
 15 16  4  0  0  0  0
 16 17  4  0  0  0  0
 17 18  4  0  0  0  0
 18 19  4  0  0  0  0
 14 19  4  0  0  0  0
  2 20  1  0  0  0  0
 20 21  4  0  0  0  0
 21 22  4  0  0  0  0
 22 23  4  0  0  0  0
 23 24  4  0  0  0  0
 24 25  4  0  0  0  0
 20 25  4  0  0  0  0
  4 26  1  0  0  0  0
  4 27  1  0  0  0  0
  5 28  1  0  0  0  0
  5 29  1  0  0  0  0
  6 30  1  0  0  0  0
  6 31  1  0  0  0  0
  8 32  1  0  0  0  0
  8 33  1  0  0  0  0
  9 34  1  0  0  0  0
  9 35  1  0  0  0  0
 10 36  1  0  0  0  0
 10 37  1  0  0  0  0
 15 38  1  0  0  0  0
 16 39  1  0  0  0  0
 17 40  1  0  0  0  0
 18 41  1  0  0  0  0
 19 42  1  0  0  0  0
 21 43  1  0  0  0  0
 22 44  1  0  0  0  0
 23 45  1  0  0  0  0
 24 46  1  0  0  0  0
 25 47  1  0  0  0  0
M  END
> <id>
1107

> <casrn>
27138-31-4

> <smiles (First)>


> <Molecular weight>
342.38568115234375

> <name>
1-[2-(benzoyloxy)propoxy]propan-2-yl benzoate 1-{[1-(benzoyloxy)propan-2-yl]oxy}propan-2-yl benzoate 2-{[1-(benzoyloxy)propan-2-yl]oxy}propyl benzoate

> <Outcome>
0

> <Molecule (RDKit Mol) (InChI Code)>
InChI=1S/C20H22O5/c21-19(17-9-3-1-4-10-17)24-15-7-13-23-14-8-16-25-20(22)18-11-5-2-6-12-18/h1-6,9-12H,7-8,13-16H2

> <reference>
ECHA

> <molecule_form>
A

$$$$

  Mrv1812 01171911372D          

 18 17  0  0  0  0            999 V2000
    0.0366   -1.0839    0.0000 C   0  0  0  0  0  0  0  0  0  0  0  0
    0.7511   -0.6714    0.0000 O   0  0  0  0  0  0  0  0  0  0  0  0
    0.7511    0.1536    0.0000 C   0  0  0  0  0  0  0  0  0  0  0  0
    0.7511    0.9786    0.0000 C   0  0  0  0  0  0  0  0  0  0  0  0
    1.5761    0.1536    0.0000 C   0  0  0  0  0  0  0  0  0  0  0  0
   -0.0739    0.1536    0.0000 C   0  0  0  0  0  0  0  0  0  0  0  0
   -0.3759   -0.3694    0.0000 H   0  0  0  0  0  0  0  0  0  0  0  0
   -0.6779   -1.4964    0.0000 H   0  0  0  0  0  0  0  0  0  0  0  0
    0.4491   -1.7984    0.0000 H   0  0  0  0  0  0  0  0  0  0  0  0
    1.5761    0.9786    0.0000 H   0  0  0  0  0  0  0  0  0  0  0  0
    0.7511    1.8036    0.0000 H   0  0  0  0  0  0  0  0  0  0  0  0
   -0.0739    0.9786    0.0000 H   0  0  0  0  0  0  0  0  0  0  0  0
    1.2603   -0.6086    0.0000 H   0  0  0  0  0  0  0  0  0  0  0  0
    2.1594   -0.4298    0.0000 H   0  0  0  0  0  0  0  0  0  0  0  0
    2.3383    0.4693    0.0000 H   0  0  0  0  0  0  0  0  0  0  0  0
   -0.7059    0.6839    0.0000 H   0  0  0  0  0  0  0  0  0  0  0  0
   -0.8864    0.0103    0.0000 H   0  0  0  0  0  0  0  0  0  0  0  0
    0.3386   -0.5609    0.0000 H   0  0  0  0  0  0  0  0  0  0  0  0
  1  2  1  0  0  0  0
  2  3  1  0  0  0  0
  3  4  1  0  0  0  0
  3  5  1  0  0  0  0
  3  6  1  0  0  0  0
  1  7  1  0  0  0  0
  1  8  1  0  0  0  0
  1  9  1  0  0  0  0
  4 10  1  0  0  0  0
  4 11  1  0  0  0  0
  4 12  1  0  0  0  0
  5 13  1  0  0  0  0
  5 14  1  0  0  0  0
  5 15  1  0  0  0  0
  6 16  1  0  0  0  0
  6 17  1  0  0  0  0
  6 18  1  0  0  0  0
M  END
> <id>
1495

> <casrn>
1634-04-4

> <smiles (First)>


> <Molecular weight>
88.14817810058594

> <name>
2-methoxy-2-methylpropane

> <Outcome>
0

> <Molecule (RDKit Mol) (InChI Code)>
InChI=1S/C5H12O/c1-5(2,3)6-4/h1-4H3

> <reference>
ECHA

> <molecule_form>
V

$$$$

  Mrv1812 01171911372D          

 20 19  0  0  0  0            999 V2000
    3.1271   -0.7437    0.0000 C   0  0  0  0  0  0  0  0  0  0  0  0
    2.7146   -0.0292    0.0000 C   0  0  0  0  0  0  0  0  0  0  0  0
    3.1271    0.6853    0.0000 C   0  0  0  0  0  0  0  0  0  0  0  0
    1.8896   -0.0292    0.0000 C   0  0  0  0  0  0  0  0  0  0  0  0
    1.8896    0.7958    0.0000 C   0  0  0  0  0  0  0  0  0  0  0  0
    1.8896   -0.8542    0.0000 N   0  0  0  0  0  0  0  0  0  0  0  0
    1.0646   -0.0292    0.0000 C   0  0  0  0  0  0  0  0  0  0  0  0
    0.2396   -0.0292    0.0000 N   0  0  0  0  0  0  0  0  0  0  0  0
    2.4126   -1.1562    0.0000 H   0  0  0  0  0  0  0  0  0  0  0  0
    3.5396   -1.4582    0.0000 H   0  0  0  0  0  0  0  0  0  0  0  0
    3.8416   -0.3312    0.0000 H   0  0  0  0  0  0  0  0  0  0  0  0
    3.5396   -0.0292    0.0000 H   0  0  0  0  0  0  0  0  0  0  0  0
    3.9240    0.8988    0.0000 H   0  0  0  0  0  0  0  0  0  0  0  0
    3.1271    1.5103    0.0000 H   0  0  0  0  0  0  0  0  0  0  0  0
    2.3302    0.8988    0.0000 H   0  0  0  0  0  0  0  0  0  0  0  0
    2.0700    1.6008    0.0000 H   0  0  0  0  0  0  0  0  0  0  0  0
    1.2432    1.3085    0.0000 H   0  0  0  0  0  0  0  0  0  0  0  0
    1.1468    0.4369    0.0000 H   0  0  0  0  0  0  0  0  0  0  0  0
    1.0660   -0.9022    0.0000 H   0  0  0  0  0  0  0  0  0  0  0  0
    1.4362   -1.5435    0.0000 H   0  0  0  0  0  0  0  0  0  0  0  0
  1  2  1  0  0  0  0
  2  3  1  0  0  0  0
  2  4  1  0  0  0  0
  4  5  1  0  0  0  0
  4  6  1  0  0  0  0
  4  7  1  0  0  0  0
  7  8  3  0  0  0  0
  1  9  1  0  0  0  0
  1 10  1  0  0  0  0
  1 11  1  0  0  0  0
  2 12  1  0  0  0  0
  3 13  1  0  0  0  0
  3 14  1  0  0  0  0
  3 15  1  0  0  0  0
  5 16  1  0  0  0  0
  5 17  1  0  0  0  0
  5 18  1  0  0  0  0
  6 19  1  0  0  0  0
  6 20  1  0  0  0  0
M  END
> <id>
589

> <casrn>
13893-53-3

> <smiles (First)>


> <Molecular weight>
112.17288208007812

> <name>
-

> <Outcome>
1

> <Molecule (RDKit Mol) (InChI Code)>
InChI=1S/C6H12N2/c1-5(2)6(3,8)4-7/h5H,8H2,1-3H3

> <reference>
ECHA

> <molecule_form>
V

$$$$

  Mrv1812 01171911372D          

 54 53  0  0  0  0            999 V2000
    7.2336    5.0019    0.0000 C   0  0  0  0  0  0  0  0  0  0  0  0
    7.9480    5.4144    0.0000 C   0  0  0  0  0  0  0  0  0  0  0  0
    8.6625    5.0019    0.0000 C   0  0  0  0  0  0  0  0  0  0  0  0
    9.3770    5.4144    0.0000 C   0  0  0  0  0  0  0  0  0  0  0  0
   10.0914    5.0019    0.0000 C   0  0  0  0  0  0  0  0  0  0  0  0
   10.8059    5.4144    0.0000 C   0  0  0  0  0  0  0  0  0  0  0  0
   11.5204    5.0019    0.0000 C   0  0  0  0  0  0  0  0  0  0  0  0
   12.2349    5.4144    0.0000 C   0  0  0  0  0  0  0  0  0  0  0  0
   12.9493    5.0019    0.0000 C   0  0  0  0  0  0  0  0  0  0  0  0
   13.6638    5.4144    0.0000 C   0  0  0  0  0  0  0  0  0  0  0  0
   14.3783    5.0019    0.0000 C   0  0  0  0  0  0  0  0  0  0  0  0
   15.0927    5.4144    0.0000 C   0  0  0  0  0  0  0  0  0  0  0  0
   15.8072    5.0019    0.0000 C   0  0  0  0  0  0  0  0  0  0  0  0
   16.5217    5.4144    0.0000 C   0  0  0  0  0  0  0  0  0  0  0  0
   17.2362    5.0019    0.0000 C   0  0  0  0  0  0  0  0  0  0  0  0
   17.9506    5.4144    0.0000 C   0  0  0  0  0  0  0  0  0  0  0  0
   18.6651    5.0019    0.0000 C   0  0  0  0  0  0  0  0  0  0  0  0
   19.3796    5.4144    0.0000 C   0  0  0  0  0  0  0  0  0  0  0  0
    6.5191    5.4144    0.0000 H   0  0  0  0  0  0  0  0  0  0  0  0
    7.2336    4.1769    0.0000 H   0  0  0  0  0  0  0  0  0  0  0  0
    7.9480    6.2394    0.0000 H   0  0  0  0  0  0  0  0  0  0  0  0
    8.2922    4.2647    0.0000 H   0  0  0  0  0  0  0  0  0  0  0  0
    9.0328    4.2647    0.0000 H   0  0  0  0  0  0  0  0  0  0  0  0
    9.7472    6.1517    0.0000 H   0  0  0  0  0  0  0  0  0  0  0  0
    9.0067    6.1517    0.0000 H   0  0  0  0  0  0  0  0  0  0  0  0
    9.7212    4.2647    0.0000 H   0  0  0  0  0  0  0  0  0  0  0  0
   10.4617    4.2647    0.0000 H   0  0  0  0  0  0  0  0  0  0  0  0
   11.1762    6.1517    0.0000 H   0  0  0  0  0  0  0  0  0  0  0  0
   10.4357    6.1517    0.0000 H   0  0  0  0  0  0  0  0  0  0  0  0
   11.1501    4.2647    0.0000 H   0  0  0  0  0  0  0  0  0  0  0  0
   11.8906    4.2647    0.0000 H   0  0  0  0  0  0  0  0  0  0  0  0
   12.6051    6.1517    0.0000 H   0  0  0  0  0  0  0  0  0  0  0  0
   11.8646    6.1517    0.0000 H   0  0  0  0  0  0  0  0  0  0  0  0
   12.5791    4.2647    0.0000 H   0  0  0  0  0  0  0  0  0  0  0  0
   13.3196    4.2647    0.0000 H   0  0  0  0  0  0  0  0  0  0  0  0
   14.0341    6.1517    0.0000 H   0  0  0  0  0  0  0  0  0  0  0  0
   13.2935    6.1517    0.0000 H   0  0  0  0  0  0  0  0  0  0  0  0
   14.0080    4.2647    0.0000 H   0  0  0  0  0  0  0  0  0  0  0  0
   14.7485    4.2647    0.0000 H   0  0  0  0  0  0  0  0  0  0  0  0
   15.4630    6.1517    0.0000 H   0  0  0  0  0  0  0  0  0  0  0  0
   14.7225    6.1517    0.0000 H   0  0  0  0  0  0  0  0  0  0  0  0
   15.4370    4.2647    0.0000 H   0  0  0  0  0  0  0  0  0  0  0  0
   16.1775    4.2647    0.0000 H   0  0  0  0  0  0  0  0  0  0  0  0
   16.8919    6.1517    0.0000 H   0  0  0  0  0  0  0  0  0  0  0  0
   16.1514    6.1517    0.0000 H   0  0  0  0  0  0  0  0  0  0  0  0
   16.8659    4.2647    0.0000 H   0  0  0  0  0  0  0  0  0  0  0  0
   17.6064    4.2647    0.0000 H   0  0  0  0  0  0  0  0  0  0  0  0
   18.3209    6.1517    0.0000 H   0  0  0  0  0  0  0  0  0  0  0  0
   17.5804    6.1517    0.0000 H   0  0  0  0  0  0  0  0  0  0  0  0
   18.2948    4.2647    0.0000 H   0  0  0  0  0  0  0  0  0  0  0  0
   19.0354    4.2647    0.0000 H   0  0  0  0  0  0  0  0  0  0  0  0
   19.7921    4.7000    0.0000 H   0  0  0  0  0  0  0  0  0  0  0  0
   20.0940    5.8269    0.0000 H   0  0  0  0  0  0  0  0  0  0  0  0
   18.9671    6.1289    0.0000 H   0  0  0  0  0  0  0  0  0  0  0  0
  1  2  2  0  0  0  0
  2  3  1  0  0  0  0
  3  4  1  0  0  0  0
  4  5  1  0  0  0  0
  5  6  1  0  0  0  0
  6  7  1  0  0  0  0
  7  8  1  0  0  0  0
  8  9  1  0  0  0  0
  9 10  1  0  0  0  0
 10 11  1  0  0  0  0
 11 12  1  0  0  0  0
 12 13  1  0  0  0  0
 13 14  1  0  0  0  0
 14 15  1  0  0  0  0
 15 16  1  0  0  0  0
 16 17  1  0  0  0  0
 17 18  1  0  0  0  0
  1 19  1  0  0  0  0
  1 20  1  0  0  0  0
  2 21  1  0  0  0  0
  3 22  1  0  0  0  0
  3 23  1  0  0  0  0
  4 24  1  0  0  0  0
  4 25  1  0  0  0  0
  5 26  1  0  0  0  0
  5 27  1  0  0  0  0
  6 28  1  0  0  0  0
  6 29  1  0  0  0  0
  7 30  1  0  0  0  0
  7 31  1  0  0  0  0
  8 32  1  0  0  0  0
  8 33  1  0  0  0  0
  9 34  1  0  0  0  0
  9 35  1  0  0  0  0
 10 36  1  0  0  0  0
 10 37  1  0  0  0  0
 11 38  1  0  0  0  0
 11 39  1  0  0  0  0
 12 40  1  0  0  0  0
 12 41  1  0  0  0  0
 13 42  1  0  0  0  0
 13 43  1  0  0  0  0
 14 44  1  0  0  0  0
 14 45  1  0  0  0  0
 15 46  1  0  0  0  0
 15 47  1  0  0  0  0
 16 48  1  0  0  0  0
 16 49  1  0  0  0  0
 17 50  1  0  0  0  0
 17 51  1  0  0  0  0
 18 52  1  0  0  0  0
 18 53  1  0  0  0  0
 18 54  1  0  0  0  0
M  END
> <id>
3611; 3576; 3584; 3609; 3567; 3598; 3610; 3617

> <casrn>
112-88-9

> <smiles (First)>


> <Molecular weight>
252.47845458984375

> <name>
octadec-1-ene

> <Outcome>
0

> <Molecule (RDKit Mol) (InChI Code)>
InChI=1S/C18H36/c1-3-5-7-9-11-13-15-17-18-16-14-12-10-8-6-4-2/h3H,1,4-18H2,2H3

> <reference>
ECHA

> <molecule_form>
V

$$$$

  Mrv1812 01171911372D          

 13 12  0  0  0  0            999 V2000
   -0.1914    0.7173    0.0000 O   0  0  0  0  0  0  0  0  0  0  0  0
    0.5230    1.1298    0.0000 C   0  0  0  0  0  0  0  0  0  0  0  0
    0.5230    1.9548    0.0000 Cl  0  0  0  0  0  0  0  0  0  0  0  0
    1.2375    0.7173    0.0000 C   0  0  0  0  0  0  0  0  0  0  0  0
    1.9520    1.1298    0.0000 C   0  0  0  0  0  0  0  0  0  0  0  0
    2.6664    0.7173    0.0000 C   0  0  0  0  0  0  0  0  0  0  0  0
    3.3809    1.1298    0.0000 Cl  0  0  0  0  0  0  0  0  0  0  0  0
    0.8672   -0.0200    0.0000 H   0  0  0  0  0  0  0  0  0  0  0  0
    1.6078   -0.0200    0.0000 H   0  0  0  0  0  0  0  0  0  0  0  0
    2.3222    1.8670    0.0000 H   0  0  0  0  0  0  0  0  0  0  0  0
    1.5817    1.8670    0.0000 H   0  0  0  0  0  0  0  0  0  0  0  0
    2.2962   -0.0200    0.0000 H   0  0  0  0  0  0  0  0  0  0  0  0
    3.0367   -0.0200    0.0000 H   0  0  0  0  0  0  0  0  0  0  0  0
  1  2  2  0  0  0  0
  2  3  1  0  0  0  0
  2  4  1  0  0  0  0
  4  5  1  0  0  0  0
  5  6  1  0  0  0  0
  6  7  1  0  0  0  0
  4  8  1  0  0  0  0
  4  9  1  0  0  0  0
  5 10  1  0  0  0  0
  5 11  1  0  0  0  0
  6 12  1  0  0  0  0
  6 13  1  0  0  0  0
M  END
> <id>
1838

> <casrn>
4635-59-0

> <smiles (First)>


> <Molecular weight>
140.99583435058594

> <name>
4-chlorobutanoyl chloride

> <Outcome>
1

> <Molecule (RDKit Mol) (InChI Code)>
InChI=1S/C4H6Cl2O/c5-3-1-2-4(6)7/h1-3H2

> <reference>
ECHA

> <molecule_form>
V

$$$$

  Mrv1812 01171911372D          

 14 13  0  0  0  0            999 V2000
    0.8894   -1.5442    0.0000 C   0  0  0  0  0  0  0  0  0  0  0  0
    0.8894   -0.7192    0.0000 C   0  0  0  0  0  0  0  0  0  0  0  0
    0.8894    0.1058    0.0000 C   0  0  0  0  0  0  0  0  0  0  0  0
    0.8894    0.9308    0.0000 C   0  0  0  0  0  0  0  0  0  0  0  0
    1.7144    0.1058    0.0000 C   0  0  0  0  0  0  0  0  0  0  0  0
    0.0644    0.1058    0.0000 O   0  0  0  0  0  0  0  0  0  0  0  0
    0.8894   -2.3692    0.0000 H   0  0  0  0  0  0  0  0  0  0  0  0
    1.7144    0.9308    0.0000 H   0  0  0  0  0  0  0  0  0  0  0  0
    0.8894    1.7558    0.0000 H   0  0  0  0  0  0  0  0  0  0  0  0
    0.0644    0.9308    0.0000 H   0  0  0  0  0  0  0  0  0  0  0  0
    1.3987   -0.6564    0.0000 H   0  0  0  0  0  0  0  0  0  0  0  0
    2.2978   -0.4775    0.0000 H   0  0  0  0  0  0  0  0  0  0  0  0
    2.4766    0.4216    0.0000 H   0  0  0  0  0  0  0  0  0  0  0  0
   -0.5190   -0.4775    0.0000 H   0  0  0  0  0  0  0  0  0  0  0  0
  1  2  3  0  0  0  0
  2  3  1  0  0  0  0
  3  4  1  0  0  0  0
  3  5  1  0  0  0  0
  3  6  1  0  0  0  0
  1  7  1  0  0  0  0
  4  8  1  0  0  0  0
  4  9  1  0  0  0  0
  4 10  1  0  0  0  0
  5 11  1  0  0  0  0
  5 12  1  0  0  0  0
  5 13  1  0  0  0  0
  6 14  1  0  0  0  0
M  END
> <id>
1512

> <casrn>
115-19-5

> <smiles (First)>


> <Molecular weight>
84.11642456054688

> <name>
2-methylbut-3-yn-2-ol

> <Outcome>
0

> <Molecule (RDKit Mol) (InChI Code)>
InChI=1S/C5H8O/c1-4-5(2,3)6/h1,6H,2-3H3

> <reference>
ECHA

> <molecule_form>
V

$$$$

  Mrv1812 01171911372D          

 21 20  0  0  0  0            999 V2000
    1.7093    1.8790    0.0000 C   0  0  0  0  0  0  0  0  0  0  0  0
    2.4238    1.4665    0.0000 C   0  0  0  0  0  0  0  0  0  0  0  0
    3.1383    1.8790    0.0000 C   0  0  0  0  0  0  0  0  0  0  0  0
    3.1383    2.7040    0.0000 O   0  0  0  0  0  0  0  0  0  0  0  0
    3.8528    1.4665    0.0000 O   0  0  0  0  0  0  0  0  0  0  0  0
    4.5672    1.8790    0.0000 C   0  0  0  0  0  0  0  0  0  0  0  0
    5.2817    1.4665    0.0000 C   0  0  0  0  0  0  0  0  0  0  0  0
    5.9962    1.8790    0.0000 C   0  0  0  0  0  0  0  0  0  0  0  0
    5.2817    0.6415    0.0000 C   0  0  0  0  0  0  0  0  0  0  0  0
    1.7093    2.7040    0.0000 H   0  0  0  0  0  0  0  0  0  0  0  0
    0.9949    1.4665    0.0000 H   0  0  0  0  0  0  0  0  0  0  0  0
    2.4238    0.6415    0.0000 H   0  0  0  0  0  0  0  0  0  0  0  0
    4.9375    2.6162    0.0000 H   0  0  0  0  0  0  0  0  0  0  0  0
    4.1970    2.6162    0.0000 H   0  0  0  0  0  0  0  0  0  0  0  0
    5.2817    2.2915    0.0000 H   0  0  0  0  0  0  0  0  0  0  0  0
    6.2097    1.0821    0.0000 H   0  0  0  0  0  0  0  0  0  0  0  0
    6.8212    1.8790    0.0000 H   0  0  0  0  0  0  0  0  0  0  0  0
    6.2097    2.6759    0.0000 H   0  0  0  0  0  0  0  0  0  0  0  0
    4.4567    0.6415    0.0000 H   0  0  0  0  0  0  0  0  0  0  0  0
    5.2817   -0.1835    0.0000 H   0  0  0  0  0  0  0  0  0  0  0  0
    6.1067    0.6415    0.0000 H   0  0  0  0  0  0  0  0  0  0  0  0
  1  2  2  0  0  0  0
  2  3  1  0  0  0  0
  3  4  2  0  0  0  0
  3  5  1  0  0  0  0
  5  6  1  0  0  0  0
  6  7  1  0  0  0  0
  7  8  1  0  0  0  0
  7  9  1  0  0  0  0
  1 10  1  0  0  0  0
  1 11  1  0  0  0  0
  2 12  1  0  0  0  0
  6 13  1  0  0  0  0
  6 14  1  0  0  0  0
  7 15  1  0  0  0  0
  8 16  1  0  0  0  0
  8 17  1  0  0  0  0
  8 18  1  0  0  0  0
  9 19  1  0  0  0  0
  9 20  1  0  0  0  0
  9 21  1  0  0  0  0
M  END
> <id>
1675; 1676

> <casrn>
106-63-8

> <smiles (First)>


> <Molecular weight>
128.16897583007812

> <name>
2-methylpropyl prop-2-enoate

> <Outcome>
1

> <Molecule (RDKit Mol) (InChI Code)>
InChI=1S/C7H12O2/c1-4-7(8)9-5-6(2)3/h4,6H,1,5H2,2-3H3

> <reference>
ECHA

> <molecule_form>
V

$$$$

  Mrv1812 01171911372D          

 16 15  0  0  0  0            999 V2000
    1.7690   -1.6112    0.0000 C   0  0  0  0  0  0  0  0  0  0  0  0
    1.3565   -0.8967    0.0000 C   0  0  0  0  0  0  0  0  0  0  0  0
    2.0710   -0.4842    0.0000 C   0  0  0  0  0  0  0  0  0  0  0  0
    0.6421   -1.3092    0.0000 C   0  0  0  0  0  0  0  0  0  0  0  0
    0.9440   -0.1823    0.0000 O   0  0  0  0  0  0  0  0  0  0  0  0
    0.1190   -0.1823    0.0000 O   0  0  0  0  0  0  0  0  0  0  0  0
    1.0546   -2.0237    0.0000 H   0  0  0  0  0  0  0  0  0  0  0  0
    2.1815   -2.3257    0.0000 H   0  0  0  0  0  0  0  0  0  0  0  0
    2.4835   -1.1987    0.0000 H   0  0  0  0  0  0  0  0  0  0  0  0
    2.8890   -0.3766    0.0000 H   0  0  0  0  0  0  0  0  0  0  0  0
    2.2845    0.3126    0.0000 H   0  0  0  0  0  0  0  0  0  0  0  0
    1.4165    0.0180    0.0000 H   0  0  0  0  0  0  0  0  0  0  0  0
    0.5344   -0.4913    0.0000 H   0  0  0  0  0  0  0  0  0  0  0  0
   -0.1548   -1.0957    0.0000 H   0  0  0  0  0  0  0  0  0  0  0  0
    0.1398   -1.9638    0.0000 H   0  0  0  0  0  0  0  0  0  0  0  0
   -0.3735    0.4796    0.0000 H   0  0  0  0  0  0  0  0  0  0  0  0
  1  2  1  0  0  0  0
  2  3  1  0  0  0  0
  2  4  1  0  0  0  0
  2  5  1  0  0  0  0
  5  6  1  0  0  0  0
  1  7  1  0  0  0  0
  1  8  1  0  0  0  0
  1  9  1  0  0  0  0
  3 10  1  0  0  0  0
  3 11  1  0  0  0  0
  3 12  1  0  0  0  0
  4 13  1  0  0  0  0
  4 14  1  0  0  0  0
  4 15  1  0  0  0  0
  6 16  1  0  0  0  0
M  END
> <id>
3921

> <casrn>
75-91-2

> <smiles (First)>


> <Molecular weight>
90.12100219726562

> <name>
tert-butyl hydroperoxide

> <Outcome>
1

> <Molecule (RDKit Mol) (InChI Code)>
InChI=1S/C4H10O2/c1-4(2,3)6-5/h5H,1-3H3

> <reference>
ECHA

> <molecule_form>
A

$$$$

  Mrv1812 01171911372D          

 19 19  0  0  0  0            999 V2000
    0.7239    2.1651    0.0000 S   0  0  0  0  0  0  0  0  0  0  0  0
    0.7239    1.3401    0.0000 C   0  0  0  0  0  0  0  0  0  0  0  0
    1.4383    0.9276    0.0000 C   0  0  0  0  0  0  0  0  0  0  0  0
    1.4383    0.1026    0.0000 C   0  0  0  0  0  0  0  0  0  0  0  0
    0.7239   -0.3099    0.0000 C   0  0  0  0  0  0  0  0  0  0  0  0
    0.0094    0.1026    0.0000 C   0  0  0  0  0  0  0  0  0  0  0  0
    0.0094    0.9276    0.0000 C   0  0  0  0  0  0  0  0  0  0  0  0
    1.4383    2.5776    0.0000 H   0  0  0  0  0  0  0  0  0  0  0  0
    0.0094    1.7526    0.0000 H   0  0  0  0  0  0  0  0  0  0  0  0
    2.2620    0.9756    0.0000 H   0  0  0  0  0  0  0  0  0  0  0  0
    1.8917    1.6169    0.0000 H   0  0  0  0  0  0  0  0  0  0  0  0
    1.8917   -0.5867    0.0000 H   0  0  0  0  0  0  0  0  0  0  0  0
    2.2620    0.0546    0.0000 H   0  0  0  0  0  0  0  0  0  0  0  0
    0.3536   -1.0472    0.0000 H   0  0  0  0  0  0  0  0  0  0  0  0
    1.0941   -1.0472    0.0000 H   0  0  0  0  0  0  0  0  0  0  0  0
   -0.8142    0.0546    0.0000 H   0  0  0  0  0  0  0  0  0  0  0  0
   -0.4439   -0.5867    0.0000 H   0  0  0  0  0  0  0  0  0  0  0  0
   -0.7658    1.2097    0.0000 H   0  0  0  0  0  0  0  0  0  0  0  0
   -0.7658    0.6454    0.0000 H   0  0  0  0  0  0  0  0  0  0  0  0
  1  2  1  0  0  0  0
  2  3  1  0  0  0  0
  3  4  1  0  0  0  0
  4  5  1  0  0  0  0
  5  6  1  0  0  0  0
  6  7  1  0  0  0  0
  2  7  1  0  0  0  0
  1  8  1  0  0  0  0
  2  9  1  0  0  0  0
  3 10  1  0  0  0  0
  3 11  1  0  0  0  0
  4 12  1  0  0  0  0
  4 13  1  0  0  0  0
  5 14  1  0  0  0  0
  5 15  1  0  0  0  0
  6 16  1  0  0  0  0
  6 17  1  0  0  0  0
  7 18  1  0  0  0  0
  7 19  1  0  0  0  0
M  END
> <id>
2832

> <casrn>
1569-69-3

> <smiles (First)>


> <Molecular weight>
116.22447967529297

> <name>
cyclohexanethiol

> <Outcome>
1

> <Molecule (RDKit Mol) (InChI Code)>
InChI=1S/C6H12S/c7-6-4-2-1-3-5-6/h6-7H,1-5H2

> <reference>
ECHA

> <molecule_form>
V

$$$$

  Mrv1812 01171911372D          

 17 17  0  0  0  0            999 V2000
    0.7145    2.0625    0.0000 C   0  0  0  0  0  0  0  0  0  0  0  0
    0.7145    1.2375    0.0000 C   0  0  0  0  0  0  0  0  0  0  0  0
    1.4289    0.8250    0.0000 C   0  0  0  0  0  0  0  0  0  0  0  0
    1.4289    0.0000    0.0000 C   0  0  0  0  0  0  0  0  0  0  0  0
    0.7145   -0.4125    0.0000 C   0  0  0  0  0  0  0  0  0  0  0  0
   -0.0000    0.0000    0.0000 C   0  0  0  0  0  0  0  0  0  0  0  0
   -0.7145   -0.4125    0.0000 N   0  0  0  0  0  0  0  0  0  0  0  0
   -0.7145   -1.2375    0.0000 C   0  0  0  0  0  0  0  0  0  0  0  0
   -0.7145   -2.0625    0.0000 O   0  0  0  0  0  0  0  0  0  0  0  0
   -0.0000    0.8250    0.0000 C   0  0  0  0  0  0  0  0  0  0  0  0
    1.5395    2.0625    0.0000 H   0  0  0  0  0  0  0  0  0  0  0  0
    0.7145    2.8875    0.0000 H   0  0  0  0  0  0  0  0  0  0  0  0
   -0.1105    2.0625    0.0000 H   0  0  0  0  0  0  0  0  0  0  0  0
    2.1434    1.2375    0.0000 H   0  0  0  0  0  0  0  0  0  0  0  0
    2.1434   -0.4125    0.0000 H   0  0  0  0  0  0  0  0  0  0  0  0
    0.7145   -1.2375    0.0000 H   0  0  0  0  0  0  0  0  0  0  0  0
   -0.7145    1.2375    0.0000 H   0  0  0  0  0  0  0  0  0  0  0  0
  1  2  1  0  0  0  0
  2  3  4  0  0  0  0
  3  4  4  0  0  0  0
  4  5  4  0  0  0  0
  5  6  4  0  0  0  0
  6  7  1  0  0  0  0
  7  8  2  0  0  0  0
  8  9  2  0  0  0  0
  6 10  4  0  0  0  0
  2 10  4  0  0  0  0
  1 11  1  0  0  0  0
  1 12  1  0  0  0  0
  1 13  1  0  0  0  0
  3 14  1  0  0  0  0
  4 15  1  0  0  0  0
  5 16  1  0  0  0  0
 10 17  1  0  0  0  0
M  END
> <id>
1171

> <casrn>
621-29-4

> <smiles (First)>


> <Molecular weight>
133.14727783203125

> <name>
1-isocyanato-3-methylbenzene

> <Outcome>
1

> <Molecule (RDKit Mol) (InChI Code)>
InChI=1S/C8H7NO/c1-7-3-2-4-8(5-7)9-6-10/h2-5H,1H3

> <reference>
ECHA

> <molecule_form>
V

$$$$

  Mrv1812 01171911372D          

 36 35  0  0  0  0            999 V2000
    3.5211    2.8589    0.0000 C   0  0  0  0  0  0  0  0  0  0  0  0
    4.2355    3.2714    0.0000 C   0  0  0  0  0  0  0  0  0  0  0  0
    4.9500    2.8589    0.0000 C   0  0  0  0  0  0  0  0  0  0  0  0
    5.6645    3.2714    0.0000 C   0  0  0  0  0  0  0  0  0  0  0  0
    6.3789    2.8589    0.0000 C   0  0  0  0  0  0  0  0  0  0  0  0
    7.0934    3.2714    0.0000 C   0  0  0  0  0  0  0  0  0  0  0  0
    7.8079    2.8589    0.0000 C   0  0  0  0  0  0  0  0  0  0  0  0
    8.5224    3.2714    0.0000 C   0  0  0  0  0  0  0  0  0  0  0  0
    9.2368    2.8589    0.0000 C   0  0  0  0  0  0  0  0  0  0  0  0
    9.9513    3.2714    0.0000 C   0  0  0  0  0  0  0  0  0  0  0  0
   10.6658    2.8589    0.0000 C   0  0  0  0  0  0  0  0  0  0  0  0
   11.3802    3.2714    0.0000 C   0  0  0  0  0  0  0  0  0  0  0  0
    2.8066    3.2714    0.0000 H   0  0  0  0  0  0  0  0  0  0  0  0
    3.5211    2.0339    0.0000 H   0  0  0  0  0  0  0  0  0  0  0  0
    4.2355    4.0964    0.0000 H   0  0  0  0  0  0  0  0  0  0  0  0
    4.5797    2.1216    0.0000 H   0  0  0  0  0  0  0  0  0  0  0  0
    5.3203    2.1216    0.0000 H   0  0  0  0  0  0  0  0  0  0  0  0
    6.0347    4.0086    0.0000 H   0  0  0  0  0  0  0  0  0  0  0  0
    5.2942    4.0086    0.0000 H   0  0  0  0  0  0  0  0  0  0  0  0
    6.0087    2.1216    0.0000 H   0  0  0  0  0  0  0  0  0  0  0  0
    6.7492    2.1216    0.0000 H   0  0  0  0  0  0  0  0  0  0  0  0
    7.4637    4.0086    0.0000 H   0  0  0  0  0  0  0  0  0  0  0  0
    6.7232    4.0086    0.0000 H   0  0  0  0  0  0  0  0  0  0  0  0
    7.4376    2.1216    0.0000 H   0  0  0  0  0  0  0  0  0  0  0  0
    8.1781    2.1216    0.0000 H   0  0  0  0  0  0  0  0  0  0  0  0
    8.8926    4.0086    0.0000 H   0  0  0  0  0  0  0  0  0  0  0  0
    8.1521    4.0086    0.0000 H   0  0  0  0  0  0  0  0  0  0  0  0
    8.8666    2.1216    0.0000 H   0  0  0  0  0  0  0  0  0  0  0  0
    9.6071    2.1216    0.0000 H   0  0  0  0  0  0  0  0  0  0  0  0
   10.3216    4.0086    0.0000 H   0  0  0  0  0  0  0  0  0  0  0  0
    9.5810    4.0086    0.0000 H   0  0  0  0  0  0  0  0  0  0  0  0
   10.2955    2.1216    0.0000 H   0  0  0  0  0  0  0  0  0  0  0  0
   11.0360    2.1216    0.0000 H   0  0  0  0  0  0  0  0  0  0  0  0
   11.7927    2.5569    0.0000 H   0  0  0  0  0  0  0  0  0  0  0  0
   12.0947    3.6839    0.0000 H   0  0  0  0  0  0  0  0  0  0  0  0
   10.9677    3.9859    0.0000 H   0  0  0  0  0  0  0  0  0  0  0  0
  1  2  2  0  0  0  0
  2  3  1  0  0  0  0
  3  4  1  0  0  0  0
  4  5  1  0  0  0  0
  5  6  1  0  0  0  0
  6  7  1  0  0  0  0
  7  8  1  0  0  0  0
  8  9  1  0  0  0  0
  9 10  1  0  0  0  0
 10 11  1  0  0  0  0
 11 12  1  0  0  0  0
  1 13  1  0  0  0  0
  1 14  1  0  0  0  0
  2 15  1  0  0  0  0
  3 16  1  0  0  0  0
  3 17  1  0  0  0  0
  4 18  1  0  0  0  0
  4 19  1  0  0  0  0
  5 20  1  0  0  0  0
  5 21  1  0  0  0  0
  6 22  1  0  0  0  0
  6 23  1  0  0  0  0
  7 24  1  0  0  0  0
  7 25  1  0  0  0  0
  8 26  1  0  0  0  0
  8 27  1  0  0  0  0
  9 28  1  0  0  0  0
  9 29  1  0  0  0  0
 10 30  1  0  0  0  0
 10 31  1  0  0  0  0
 11 32  1  0  0  0  0
 11 33  1  0  0  0  0
 12 34  1  0  0  0  0
 12 35  1  0  0  0  0
 12 36  1  0  0  0  0
M  END
> <id>
3090; 3095

> <casrn>
112-41-4

> <smiles (First)>


> <Molecular weight>
168.3189697265625

> <name>
dodec-1-ene

> <Outcome>
0

> <Molecule (RDKit Mol) (InChI Code)>
InChI=1S/C12H24/c1-3-5-7-9-11-12-10-8-6-4-2/h3H,1,4-12H2,2H3

> <reference>
ECHA

> <molecule_form>
V

$$$$

  Mrv1812 01171911372D          

 10  9  0  0  0  0            999 V2000
    1.2375    0.7145    0.0000 C   0  0  0  0  0  0  0  0  0  0  0  0
    0.8250   -0.0000    0.0000 C   0  0  0  0  0  0  0  0  0  0  0  0
    1.2375   -0.7145    0.0000 C   0  0  0  0  0  0  0  0  0  0  0  0
   -0.0000   -0.0000    0.0000 O   0  0  0  0  0  0  0  0  0  0  0  0
    1.9520    0.3020    0.0000 H   0  0  0  0  0  0  0  0  0  0  0  0
    1.6500    1.4289    0.0000 H   0  0  0  0  0  0  0  0  0  0  0  0
    0.5230    1.1270    0.0000 H   0  0  0  0  0  0  0  0  0  0  0  0
    0.5230   -1.1270    0.0000 H   0  0  0  0  0  0  0  0  0  0  0  0
    1.6500   -1.4289    0.0000 H   0  0  0  0  0  0  0  0  0  0  0  0
    1.9520   -0.3020    0.0000 H   0  0  0  0  0  0  0  0  0  0  0  0
  1  2  1  0  0  0  0
  2  3  1  0  0  0  0
  2  4  2  0  0  0  0
  1  5  1  0  0  0  0
  1  6  1  0  0  0  0
  1  7  1  0  0  0  0
  3  8  1  0  0  0  0
  3  9  1  0  0  0  0
  3 10  1  0  0  0  0
M  END
> <id>
3794

> <casrn>
67-64-1

> <smiles (First)>


> <Molecular weight>
58.079139709472656

> <name>
propan-2-one

> <Outcome>
0

> <Molecule (RDKit Mol) (InChI Code)>
InChI=1S/C3H6O/c1-3(2)4/h1-2H3

> <reference>
ECHA

> <molecule_form>
V

$$$$

  Mrv1812 01171911372D          

 13 13  0  0  0  0            999 V2000
    0.0000    2.4750    0.0000 O   0  0  0  0  0  0  0  0  0  0  0  0
    0.7145    2.0625    0.0000 C   0  0  0  0  0  0  0  0  0  0  0  0
    0.7145    1.2375    0.0000 C   0  0  0  0  0  0  0  0  0  0  0  0
    1.4289    0.8250    0.0000 C   0  0  0  0  0  0  0  0  0  0  0  0
    1.4289    0.0000    0.0000 C   0  0  0  0  0  0  0  0  0  0  0  0
    0.7145   -0.4125    0.0000 C   0  0  0  0  0  0  0  0  0  0  0  0
    0.0000    0.0000    0.0000 C   0  0  0  0  0  0  0  0  0  0  0  0
    0.0000    0.8250    0.0000 N   0  0  0  0  0  0  0  0  0  0  0  0
    1.4289    2.4750    0.0000 H   0  0  0  0  0  0  0  0  0  0  0  0
    2.1434    1.2375    0.0000 H   0  0  0  0  0  0  0  0  0  0  0  0
    2.1434   -0.4125    0.0000 H   0  0  0  0  0  0  0  0  0  0  0  0
    0.7145   -1.2375    0.0000 H   0  0  0  0  0  0  0  0  0  0  0  0
   -0.7145   -0.4125    0.0000 H   0  0  0  0  0  0  0  0  0  0  0  0
  1  2  2  0  0  0  0
  2  3  1  0  0  0  0
  3  4  4  0  0  0  0
  4  5  4  0  0  0  0
  5  6  4  0  0  0  0
  6  7  4  0  0  0  0
  7  8  4  0  0  0  0
  3  8  4  0  0  0  0
  2  9  1  0  0  0  0
  4 10  1  0  0  0  0
  5 11  1  0  0  0  0
  6 12  1  0  0  0  0
  7 13  1  0  0  0  0
M  END
> <id>
3813

> <casrn>
1121-60-4

> <smiles (First)>


> <Molecular weight>
107.11000061035156

> <name>
pyridine-2-carbaldehyde

> <Outcome>
1

> <Molecule (RDKit Mol) (InChI Code)>
InChI=1S/C6H5NO/c8-5-6-3-1-2-4-7-6/h1-5H

> <reference>
ECHA

> <molecule_form>
A

$$$$

  Mrv1812 01171911372D          

  6  5  0  0  0  0            999 V2000
    0.8250    1.4289    0.0000 O   0  0  0  0  0  0  0  0  0  0  0  0
    1.2375    0.7145    0.0000 C   0  0  0  0  0  0  0  0  0  0  0  0
    2.0625    0.7145    0.0000 Cl  0  0  0  0  0  0  0  0  0  0  0  0
    0.8250   -0.0000    0.0000 C   0  0  0  0  0  0  0  0  0  0  0  0
    1.2375   -0.7145    0.0000 O   0  0  0  0  0  0  0  0  0  0  0  0
    0.0000   -0.0000    0.0000 Cl  0  0  0  0  0  0  0  0  0  0  0  0
  1  2  2  0  0  0  0
  2  3  1  0  0  0  0
  2  4  1  0  0  0  0
  4  5  2  0  0  0  0
  4  6  1  0  0  0  0
M  END
> <id>
3118

> <casrn>
79-37-8

> <smiles (First)>


> <Molecular weight>
126.92620086669922

> <name>
ethanedioyl dichloride

> <Outcome>
1

> <Molecule (RDKit Mol) (InChI Code)>
InChI=1S/C2Cl2O2/c3-1(5)2(4)6

> <reference>
ECHA

> <molecule_form>
V

$$$$

  Mrv1812 01171911372D          

 37 36  0  0  0  0            999 V2000
   -0.6826   -3.3896    0.0000 C   0  0  0  0  0  0  0  0  0  0  0  0
   -0.6826   -2.5646    0.0000 Si  0  0  0  0  0  0  0  0  0  0  0  0
    0.1424   -2.5646    0.0000 C   0  0  0  0  0  0  0  0  0  0  0  0
   -1.5076   -2.5646    0.0000 C   0  0  0  0  0  0  0  0  0  0  0  0
   -0.6826   -1.7396    0.0000 O   0  0  0  0  0  0  0  0  0  0  0  0
    0.0319   -1.3271    0.0000 Si  0  0  0  0  0  0  0  0  0  0  0  0
    0.4444   -2.0416    0.0000 C   0  0  0  0  0  0  0  0  0  0  0  0
   -0.3806   -0.6127    0.0000 C   0  0  0  0  0  0  0  0  0  0  0  0
    0.7463   -0.9146    0.0000 O   0  0  0  0  0  0  0  0  0  0  0  0
    0.7463   -0.0896    0.0000 Si  0  0  0  0  0  0  0  0  0  0  0  0
    0.7463    0.7354    0.0000 C   0  0  0  0  0  0  0  0  0  0  0  0
    1.5713   -0.0896    0.0000 C   0  0  0  0  0  0  0  0  0  0  0  0
   -0.0787   -0.0896    0.0000 C   0  0  0  0  0  0  0  0  0  0  0  0
   -1.5076   -3.3896    0.0000 H   0  0  0  0  0  0  0  0  0  0  0  0
   -0.6826   -4.2146    0.0000 H   0  0  0  0  0  0  0  0  0  0  0  0
    0.1424   -3.3896    0.0000 H   0  0  0  0  0  0  0  0  0  0  0  0
    0.7744   -3.0949    0.0000 H   0  0  0  0  0  0  0  0  0  0  0  0
    0.9549   -2.4214    0.0000 H   0  0  0  0  0  0  0  0  0  0  0  0
   -0.2701   -1.8502    0.0000 H   0  0  0  0  0  0  0  0  0  0  0  0
   -1.1919   -1.8024    0.0000 H   0  0  0  0  0  0  0  0  0  0  0  0
   -2.0910   -1.9813    0.0000 H   0  0  0  0  0  0  0  0  0  0  0  0
   -2.2698   -2.8804    0.0000 H   0  0  0  0  0  0  0  0  0  0  0  0
    1.2686   -2.0054    0.0000 H   0  0  0  0  0  0  0  0  0  0  0  0
    1.0606   -1.4930    0.0000 H   0  0  0  0  0  0  0  0  0  0  0  0
    0.5757   -1.2271    0.0000 H   0  0  0  0  0  0  0  0  0  0  0  0
   -0.7931    0.1018    0.0000 H   0  0  0  0  0  0  0  0  0  0  0  0
   -1.2056   -0.6127    0.0000 H   0  0  0  0  0  0  0  0  0  0  0  0
   -0.7931   -1.3271    0.0000 H   0  0  0  0  0  0  0  0  0  0  0  0
    1.5713    0.7354    0.0000 H   0  0  0  0  0  0  0  0  0  0  0  0
    0.7463    1.5604    0.0000 H   0  0  0  0  0  0  0  0  0  0  0  0
   -0.0787    0.7354    0.0000 H   0  0  0  0  0  0  0  0  0  0  0  0
    1.2556   -0.8518    0.0000 H   0  0  0  0  0  0  0  0  0  0  0  0
    2.1547   -0.6730    0.0000 H   0  0  0  0  0  0  0  0  0  0  0  0
    2.3335    0.2261    0.0000 H   0  0  0  0  0  0  0  0  0  0  0  0
    0.3338   -0.8041    0.0000 H   0  0  0  0  0  0  0  0  0  0  0  0
    0.5047    0.4937    0.0000 H   0  0  0  0  0  0  0  0  0  0  0  0
   -0.5809    0.5649    0.0000 H   0  0  0  0  0  0  0  0  0  0  0  0
  1  2  1  0  0  0  0
  2  3  1  0  0  0  0
  2  4  1  0  0  0  0
  2  5  1  0  0  0  0
  5  6  1  0  0  0  0
  6  7  1  0  0  0  0
  6  8  1  0  0  0  0
  6  9  1  0  0  0  0
  9 10  1  0  0  0  0
 10 11  1  0  0  0  0
 10 12  1  0  0  0  0
 10 13  1  0  0  0  0
  1 14  1  0  0  0  0
  1 15  1  0  0  0  0
  1 16  1  0  0  0  0
  3 17  1  0  0  0  0
  3 18  1  0  0  0  0
  3 19  1  0  0  0  0
  4 20  1  0  0  0  0
  4 21  1  0  0  0  0
  4 22  1  0  0  0  0
  7 23  1  0  0  0  0
  7 24  1  0  0  0  0
  7 25  1  0  0  0  0
  8 26  1  0  0  0  0
  8 27  1  0  0  0  0
  8 28  1  0  0  0  0
 11 29  1  0  0  0  0
 11 30  1  0  0  0  0
 11 31  1  0  0  0  0
 12 32  1  0  0  0  0
 12 33  1  0  0  0  0
 12 34  1  0  0  0  0
 13 35  1  0  0  0  0
 13 36  1  0  0  0  0
 13 37  1  0  0  0  0
M  END
> <id>
1247

> <casrn>
107-51-7

> <smiles (First)>


> <Molecular weight>
236.53146362304688

> <name>
2,2,4,4,6,6-hexamethyl-3,5-dioxa-2,4,6-trisilaheptane

> <Outcome>
0

> <Molecule (RDKit Mol) (InChI Code)>
InChI=1S/C8H24O2Si3/c1-11(2,3)9-13(7,8)10-12(4,5)6/h1-8H3

> <reference>
ECHA

> <molecule_form>
V

$$$$

  Mrv1812 01171911372D          

 17 16  0  0  0  0            999 V2000
    0.8250   -0.8250    0.0000 C   0  0  0  0  0  0  0  0  0  0  0  0
    0.8250    0.0000    0.0000 Si  0  0  0  0  0  0  0  0  0  0  0  0
    0.8250    0.8250    0.0000 C   0  0  0  0  0  0  0  0  0  0  0  0
    1.6500   -0.0000    0.0000 C   0  0  0  0  0  0  0  0  0  0  0  0
    0.0000    0.0000    0.0000 C   0  0  0  0  0  0  0  0  0  0  0  0
    0.0000   -0.8250    0.0000 H   0  0  0  0  0  0  0  0  0  0  0  0
    0.8250   -1.6500    0.0000 H   0  0  0  0  0  0  0  0  0  0  0  0
    1.6500   -0.8250    0.0000 H   0  0  0  0  0  0  0  0  0  0  0  0
    1.6500    0.8250    0.0000 H   0  0  0  0  0  0  0  0  0  0  0  0
    0.8250    1.6500    0.0000 H   0  0  0  0  0  0  0  0  0  0  0  0
    0.0000    0.8250    0.0000 H   0  0  0  0  0  0  0  0  0  0  0  0
    2.2334   -0.5834    0.0000 H   0  0  0  0  0  0  0  0  0  0  0  0
    2.4750   -0.0000    0.0000 H   0  0  0  0  0  0  0  0  0  0  0  0
    2.2334    0.5834    0.0000 H   0  0  0  0  0  0  0  0  0  0  0  0
   -0.5834    0.5834    0.0000 H   0  0  0  0  0  0  0  0  0  0  0  0
   -0.8250    0.0000    0.0000 H   0  0  0  0  0  0  0  0  0  0  0  0
   -0.5834   -0.5834    0.0000 H   0  0  0  0  0  0  0  0  0  0  0  0
  1  2  1  0  0  0  0
  2  3  1  0  0  0  0
  2  4  1  0  0  0  0
  2  5  1  0  0  0  0
  1  6  1  0  0  0  0
  1  7  1  0  0  0  0
  1  8  1  0  0  0  0
  3  9  1  0  0  0  0
  3 10  1  0  0  0  0
  3 11  1  0  0  0  0
  4 12  1  0  0  0  0
  4 13  1  0  0  0  0
  4 14  1  0  0  0  0
  5 15  1  0  0  0  0
  5 16  1  0  0  0  0
  5 17  1  0  0  0  0
M  END
> <id>
3979

> <casrn>
75-76-3

> <smiles (First)>


> <Molecular weight>
88.22357940673828

> <name>
tetramethylsilane

> <Outcome>
0

> <Molecule (RDKit Mol) (InChI Code)>
InChI=1S/C4H12Si/c1-5(2,3)4/h1-4H3

> <reference>
ECHA

> <molecule_form>
V

$$$$

  Mrv1812 01171911372D          

 17 17  0  0  0  0            999 V2000
    0.8556    1.3610    0.0000 C   0  0  0  0  0  0  0  0  0  0  0  0
    1.5989    1.0031    0.0000 C   0  0  0  0  0  0  0  0  0  0  0  0
    1.7824    0.1987    0.0000 C   0  0  0  0  0  0  0  0  0  0  0  0
    1.2681   -0.4463    0.0000 O   0  0  0  0  0  0  0  0  0  0  0  0
    0.4431   -0.4463    0.0000 C   0  0  0  0  0  0  0  0  0  0  0  0
   -0.0713    0.1987    0.0000 O   0  0  0  0  0  0  0  0  0  0  0  0
    0.1123    1.0031    0.0000 C   0  0  0  0  0  0  0  0  0  0  0  0
    1.2135    2.1043    0.0000 H   0  0  0  0  0  0  0  0  0  0  0  0
    0.4976    2.1043    0.0000 H   0  0  0  0  0  0  0  0  0  0  0  0
    2.4032    1.1866    0.0000 H   0  0  0  0  0  0  0  0  0  0  0  0
    1.9568    1.7464    0.0000 H   0  0  0  0  0  0  0  0  0  0  0  0
    2.4275   -0.3156    0.0000 H   0  0  0  0  0  0  0  0  0  0  0  0
    2.5868    0.3823    0.0000 H   0  0  0  0  0  0  0  0  0  0  0  0
   -0.2019   -0.9606    0.0000 H   0  0  0  0  0  0  0  0  0  0  0  0
    0.4431   -1.2713    0.0000 H   0  0  0  0  0  0  0  0  0  0  0  0
   -0.2457    1.7464    0.0000 H   0  0  0  0  0  0  0  0  0  0  0  0
   -0.6920    1.1866    0.0000 H   0  0  0  0  0  0  0  0  0  0  0  0
  1  2  1  0  0  0  0
  2  3  1  0  0  0  0
  3  4  1  0  0  0  0
  4  5  1  0  0  0  0
  5  6  1  0  0  0  0
  6  7  1  0  0  0  0
  1  7  1  0  0  0  0
  1  8  1  0  0  0  0
  1  9  1  0  0  0  0
  2 10  1  0  0  0  0
  2 11  1  0  0  0  0
  3 12  1  0  0  0  0
  3 13  1  0  0  0  0
  5 14  1  0  0  0  0
  5 15  1  0  0  0  0
  7 16  1  0  0  0  0
  7 17  1  0  0  0  0
M  END
> <id>
993

> <casrn>
505-65-7

> <smiles (First)>


> <Molecular weight>
102.13169860839844

> <name>
1,3-dioxepane

> <Outcome>
0

> <Molecule (RDKit Mol) (InChI Code)>
InChI=1S/C5H10O2/c1-2-4-7-5-6-3-1/h1-5H2

> <reference>
ECHA

> <molecule_form>
V

$$$$

  Mrv1812 01171911372D          

 21 20  0  0  0  0            999 V2000
    1.7605    1.8414    0.0000 C   0  0  0  0  0  0  0  0  0  0  0  0
    2.4750    1.4289    0.0000 C   0  0  0  0  0  0  0  0  0  0  0  0
    2.4750    0.6039    0.0000 C   0  0  0  0  0  0  0  0  0  0  0  0
    3.1895    1.8414    0.0000 C   0  0  0  0  0  0  0  0  0  0  0  0
    3.1895    2.6664    0.0000 O   0  0  0  0  0  0  0  0  0  0  0  0
    3.9039    1.4289    0.0000 O   0  0  0  0  0  0  0  0  0  0  0  0
    4.6184    1.8414    0.0000 C   0  0  0  0  0  0  0  0  0  0  0  0
    4.6184    2.6664    0.0000 O   0  0  0  0  0  0  0  0  0  0  0  0
    5.3329    1.4289    0.0000 C   0  0  0  0  0  0  0  0  0  0  0  0
    6.0474    1.8414    0.0000 C   0  0  0  0  0  0  0  0  0  0  0  0
    5.3329    0.6039    0.0000 C   0  0  0  0  0  0  0  0  0  0  0  0
    1.7605    2.6664    0.0000 H   0  0  0  0  0  0  0  0  0  0  0  0
    1.0461    1.4289    0.0000 H   0  0  0  0  0  0  0  0  0  0  0  0
    1.6500    0.6039    0.0000 H   0  0  0  0  0  0  0  0  0  0  0  0
    2.4750   -0.2211    0.0000 H   0  0  0  0  0  0  0  0  0  0  0  0
    3.3000    0.6039    0.0000 H   0  0  0  0  0  0  0  0  0  0  0  0
    6.7618    1.4289    0.0000 H   0  0  0  0  0  0  0  0  0  0  0  0
    6.0474    2.6664    0.0000 H   0  0  0  0  0  0  0  0  0  0  0  0
    4.5079    0.6039    0.0000 H   0  0  0  0  0  0  0  0  0  0  0  0
    5.3329   -0.2211    0.0000 H   0  0  0  0  0  0  0  0  0  0  0  0
    6.1579    0.6039    0.0000 H   0  0  0  0  0  0  0  0  0  0  0  0
  1  2  2  0  0  0  0
  2  3  1  0  0  0  0
  2  4  1  0  0  0  0
  4  5  2  0  0  0  0
  4  6  1  0  0  0  0
  6  7  1  0  0  0  0
  7  8  2  0  0  0  0
  7  9  1  0  0  0  0
  9 10  2  0  0  0  0
  9 11  1  0  0  0  0
  1 12  1  0  0  0  0
  1 13  1  0  0  0  0
  3 14  1  0  0  0  0
  3 15  1  0  0  0  0
  3 16  1  0  0  0  0
 10 17  1  0  0  0  0
 10 18  1  0  0  0  0
 11 19  1  0  0  0  0
 11 20  1  0  0  0  0
 11 21  1  0  0  0  0
M  END
> <id>
1653

> <casrn>
760-93-0

> <smiles (First)>


> <Molecular weight>
154.1632080078125

> <name>
2-methylprop-2-enoyl 2-methylprop-2-enoate

> <Outcome>
1

> <Molecule (RDKit Mol) (InChI Code)>
InChI=1S/C8H10O3/c1-5(2)7(9)11-8(10)6(3)4/h1,3H2,2,4H3

> <reference>
ECHA

> <molecule_form>
A

$$$$

  Mrv1812 01171911372D          

 13 12  0  0  0  0            999 V2000
    0.7851    1.5253    0.0000 C   0  0  0  0  0  0  0  0  0  0  0  0
    1.1976    0.8108    0.0000 C   0  0  0  0  0  0  0  0  0  0  0  0
    2.0226    0.8108    0.0000 C   0  0  0  0  0  0  0  0  0  0  0  0
    0.7851    0.0963    0.0000 C   0  0  0  0  0  0  0  0  0  0  0  0
    1.1976   -0.6182    0.0000 O   0  0  0  0  0  0  0  0  0  0  0  0
   -0.0399    0.0963    0.0000 Cl  0  0  0  0  0  0  0  0  0  0  0  0
    1.4995    1.9378    0.0000 H   0  0  0  0  0  0  0  0  0  0  0  0
    0.3726    2.2397    0.0000 H   0  0  0  0  0  0  0  0  0  0  0  0
    0.0706    1.1128    0.0000 H   0  0  0  0  0  0  0  0  0  0  0  0
    1.6101    1.5253    0.0000 H   0  0  0  0  0  0  0  0  0  0  0  0
    1.8090    0.0139    0.0000 H   0  0  0  0  0  0  0  0  0  0  0  0
    2.7370    0.3983    0.0000 H   0  0  0  0  0  0  0  0  0  0  0  0
    2.6059    1.3941    0.0000 H   0  0  0  0  0  0  0  0  0  0  0  0
  1  2  1  0  0  0  0
  2  3  1  0  0  0  0
  2  4  1  0  0  0  0
  4  5  2  0  0  0  0
  4  6  1  0  0  0  0
  1  7  1  0  0  0  0
  1  8  1  0  0  0  0
  1  9  1  0  0  0  0
  2 10  1  0  0  0  0
  3 11  1  0  0  0  0
  3 12  1  0  0  0  0
  3 13  1  0  0  0  0
M  END
> <id>
1673

> <casrn>
79-30-1

> <smiles (First)>


> <Molecular weight>
106.55078125

> <name>
2-methylpropanoyl chloride

> <Outcome>
1

> <Molecule (RDKit Mol) (InChI Code)>
InChI=1S/C4H7ClO/c1-3(2)4(5)6/h3H,1-2H3

> <reference>
ECHA

> <molecule_form>
V

$$$$

  Mrv1812 01171911372D          

 14 14  0  0  0  0            999 V2000
   -0.7145    2.8875    0.0000 O   0  0  0  0  0  0  0  0  0  0  0  0
   -0.0000    2.4750    0.0000 C   0  0  0  0  0  0  0  0  0  0  0  0
    0.7145    2.0625    0.0000 N   0  0  0  0  0  0  0  0  0  0  0  0
    0.7145    1.2375    0.0000 C   0  0  0  0  0  0  0  0  0  0  0  0
    1.4289    0.8250    0.0000 C   0  0  0  0  0  0  0  0  0  0  0  0
    1.4289    0.0000    0.0000 C   0  0  0  0  0  0  0  0  0  0  0  0
    0.7145   -0.4125    0.0000 C   0  0  0  0  0  0  0  0  0  0  0  0
   -0.0000    0.0000    0.0000 C   0  0  0  0  0  0  0  0  0  0  0  0
   -0.0000    0.8250    0.0000 C   0  0  0  0  0  0  0  0  0  0  0  0
    2.1434    1.2375    0.0000 H   0  0  0  0  0  0  0  0  0  0  0  0
    2.1434   -0.4125    0.0000 H   0  0  0  0  0  0  0  0  0  0  0  0
    0.7145   -1.2375    0.0000 H   0  0  0  0  0  0  0  0  0  0  0  0
   -0.7145   -0.4125    0.0000 H   0  0  0  0  0  0  0  0  0  0  0  0
   -0.7145    1.2375    0.0000 H   0  0  0  0  0  0  0  0  0  0  0  0
  1  2  2  0  0  0  0
  2  3  2  0  0  0  0
  3  4  1  0  0  0  0
  4  5  4  0  0  0  0
  5  6  4  0  0  0  0
  6  7  4  0  0  0  0
  7  8  4  0  0  0  0
  8  9  4  0  0  0  0
  4  9  4  0  0  0  0
  5 10  1  0  0  0  0
  6 11  1  0  0  0  0
  7 12  1  0  0  0  0
  8 13  1  0  0  0  0
  9 14  1  0  0  0  0
M  END
> <id>
3372

> <casrn>
103-71-9

> <smiles (First)>


> <Molecular weight>
119.1207046508789

> <name>
isocyanatobenzene

> <Outcome>
1

> <Molecule (RDKit Mol) (InChI Code)>
InChI=1S/C7H5NO/c9-6-8-7-4-2-1-3-5-7/h1-5H

> <reference>
ECHA

> <molecule_form>
V

$$$$

  Mrv1812 01171911372D          

 10  9  0  0  0  0            999 V2000
    2.0625   -0.7145    0.0000 O   0  0  0  0  0  0  0  0  0  0  0  0
    1.2375   -0.7145    0.0000 C   0  0  0  0  0  0  0  0  0  0  0  0
    0.8250   -0.0000    0.0000 C   0  0  0  0  0  0  0  0  0  0  0  0
    0.0000   -0.0000    0.0000 S   0  0  0  0  0  0  0  0  0  0  0  0
    2.4750   -1.4290    0.0000 H   0  0  0  0  0  0  0  0  0  0  0  0
    0.5482   -1.1678    0.0000 H   0  0  0  0  0  0  0  0  0  0  0  0
    1.1895   -1.5381    0.0000 H   0  0  0  0  0  0  0  0  0  0  0  0
    1.5143    0.4533    0.0000 H   0  0  0  0  0  0  0  0  0  0  0  0
    0.8730    0.8236    0.0000 H   0  0  0  0  0  0  0  0  0  0  0  0
   -0.4125    0.7145    0.0000 H   0  0  0  0  0  0  0  0  0  0  0  0
  1  2  1  0  0  0  0
  2  3  1  0  0  0  0
  3  4  1  0  0  0  0
  1  5  1  0  0  0  0
  2  6  1  0  0  0  0
  2  7  1  0  0  0  0
  3  8  1  0  0  0  0
  3  9  1  0  0  0  0
  4 10  1  0  0  0  0
M  END
> <id>
1702; 3851

> <casrn>
60-24-2

> <smiles (First)>


> <Molecular weight>
77.62947082519531

> <name>
2-sulfanylethan-1-ol

> <Outcome>
1

> <Molecule (RDKit Mol) (InChI Code)>
InChI=1S/C2H6OS/c3-1-2-4/h3-4H,1-2H2

> <reference>
ECHA

> <molecule_form>
V

$$$$

  Mrv1812 01171911372D          

 12 11  0  0  0  0            999 V2000
    2.4750   -1.4289    0.0000 O   0  0  0  0  0  0  0  0  0  0  0  0
    2.0625   -0.7145    0.0000 C   0  0  0  0  0  0  0  0  0  0  0  0
    2.4750   -0.0000    0.0000 O   0  0  0  0  0  0  0  0  0  0  0  0
    1.2375   -0.7145    0.0000 C   0  0  0  0  0  0  0  0  0  0  0  0
    0.8250   -0.0000    0.0000 C   0  0  0  0  0  0  0  0  0  0  0  0
   -0.0000   -0.0000    0.0000 S   0  0  0  0  0  0  0  0  0  0  0  0
    3.3000   -0.0000    0.0000 H   0  0  0  0  0  0  0  0  0  0  0  0
    0.5482   -1.1678    0.0000 H   0  0  0  0  0  0  0  0  0  0  0  0
    1.1895   -1.5381    0.0000 H   0  0  0  0  0  0  0  0  0  0  0  0
    1.5143    0.4533    0.0000 H   0  0  0  0  0  0  0  0  0  0  0  0
    0.8730    0.8236    0.0000 H   0  0  0  0  0  0  0  0  0  0  0  0
   -0.4125    0.7145    0.0000 H   0  0  0  0  0  0  0  0  0  0  0  0
  1  2  2  0  0  0  0
  2  3  1  0  0  0  0
  2  4  1  0  0  0  0
  4  5  1  0  0  0  0
  5  6  1  0  0  0  0
  3  7  1  0  0  0  0
  4  8  1  0  0  0  0
  4  9  1  0  0  0  0
  5 10  1  0  0  0  0
  5 11  1  0  0  0  0
  6 12  1  0  0  0  0
M  END
> <id>
1806

> <casrn>
107-96-0

> <smiles (First)>


> <Molecular weight>
106.14353942871094

> <name>
3-sulfanylpropanoic acid

> <Outcome>
1

> <Molecule (RDKit Mol) (InChI Code)>
InChI=1S/C3H6O2S/c4-3(5)1-2-6/h6H,1-2H2,(H,4,5)

> <reference>
ECHA

> <molecule_form>
A

$$$$

  Mrv1812 01171911372D          

 12 11  0  0  0  0            999 V2000
    2.0625    0.7145    0.0000 O   0  0  0  0  0  0  0  0  0  0  0  0
    1.6500    0.0000    0.0000 C   0  0  0  0  0  0  0  0  0  0  0  0
    0.8250    0.0000    0.0000 C   0  0  0  0  0  0  0  0  0  0  0  0
    0.0000    0.0000    0.0000 C   0  0  0  0  0  0  0  0  0  0  0  0
   -0.8250    0.0000    0.0000 C   0  0  0  0  0  0  0  0  0  0  0  0
   -1.2375   -0.7145    0.0000 O   0  0  0  0  0  0  0  0  0  0  0  0
    2.8875    0.7145    0.0000 H   0  0  0  0  0  0  0  0  0  0  0  0
    1.6980   -0.8236    0.0000 H   0  0  0  0  0  0  0  0  0  0  0  0
    2.3393   -0.4533    0.0000 H   0  0  0  0  0  0  0  0  0  0  0  0
   -0.8730    0.8236    0.0000 H   0  0  0  0  0  0  0  0  0  0  0  0
   -1.5143    0.4533    0.0000 H   0  0  0  0  0  0  0  0  0  0  0  0
   -2.0625   -0.7145    0.0000 H   0  0  0  0  0  0  0  0  0  0  0  0
  1  2  1  0  0  0  0
  2  3  1  0  0  0  0
  3  4  3  0  0  0  0
  4  5  1  0  0  0  0
  5  6  1  0  0  0  0
  1  7  1  0  0  0  0
  2  8  1  0  0  0  0
  2  9  1  0  0  0  0
  5 10  1  0  0  0  0
  5 11  1  0  0  0  0
  6 12  1  0  0  0  0
M  END
> <id>
2690

> <casrn>
110-65-6

> <smiles (First)>


> <Molecular weight>
86.08924102783203

> <name>
but-2-yne-1,4-diol

> <Outcome>
1

> <Molecule (RDKit Mol) (InChI Code)>
InChI=1S/C4H6O2/c5-3-1-2-4-6/h5-6H,3-4H2

> <reference>
ECHA

> <molecule_form>
A

$$$$

  Mrv1812 01171911372D          

  9  8  0  0  0  0            999 V2000
    2.1228   -1.5544    0.0000 C   0  0  0  0  0  0  0  0  0  0  0  0
    1.7103   -0.8399    0.0000 C   0  0  0  0  0  0  0  0  0  0  0  0
    0.8853   -0.8399    0.0000 S   0  0  0  0  0  0  0  0  0  0  0  0
    1.4083   -1.9669    0.0000 H   0  0  0  0  0  0  0  0  0  0  0  0
    2.5353   -2.2689    0.0000 H   0  0  0  0  0  0  0  0  0  0  0  0
    2.8373   -1.1419    0.0000 H   0  0  0  0  0  0  0  0  0  0  0  0
    2.3996   -0.3866    0.0000 H   0  0  0  0  0  0  0  0  0  0  0  0
    1.7583   -0.0163    0.0000 H   0  0  0  0  0  0  0  0  0  0  0  0
    0.4728   -0.1254    0.0000 H   0  0  0  0  0  0  0  0  0  0  0  0
  1  2  1  0  0  0  0
  2  3  1  0  0  0  0
  1  4  1  0  0  0  0
  1  5  1  0  0  0  0
  1  6  1  0  0  0  0
  2  7  1  0  0  0  0
  2  8  1  0  0  0  0
  3  9  1  0  0  0  0
M  END
> <id>
3127; 3125

> <casrn>
75-08-1

> <smiles (First)>


> <Molecular weight>
62.13404083251953

> <name>
ethanethiol

> <Outcome>
1

> <Molecule (RDKit Mol) (InChI Code)>
InChI=1S/C2H6S/c1-2-3/h3H,2H2,1H3

> <reference>
ECHA

> <molecule_form>
V

$$$$

  Mrv1812 01171911372D          

 28 27  0  0  0  0            999 V2000
    4.4106   -2.1707    0.0000 C   0  0  0  0  0  0  0  0  0  0  0  0
    3.9981   -1.4563    0.0000 O   0  0  0  0  0  0  0  0  0  0  0  0
    3.1731   -1.4563    0.0000 Si  0  0  0  0  0  0  0  0  0  0  0  0
    2.3481   -1.4563    0.0000 C   0  0  0  0  0  0  0  0  0  0  0  0
    1.9356   -0.7418    0.0000 C   0  0  0  0  0  0  0  0  0  0  0  0
    1.1106   -0.7418    0.0000 C   0  0  0  0  0  0  0  0  0  0  0  0
    0.6981   -0.0273    0.0000 N   0  0  0  0  0  0  0  0  0  0  0  0
   -0.1269   -0.0273    0.0000 C   0  0  0  0  0  0  0  0  0  0  0  0
   -0.9519   -0.0273    0.0000 O   0  0  0  0  0  0  0  0  0  0  0  0
    3.1731   -0.6313    0.0000 O   0  0  0  0  0  0  0  0  0  0  0  0
    2.4586   -0.2188    0.0000 C   0  0  0  0  0  0  0  0  0  0  0  0
    3.1731   -2.2813    0.0000 O   0  0  0  0  0  0  0  0  0  0  0  0
    2.4586   -2.6938    0.0000 C   0  0  0  0  0  0  0  0  0  0  0  0
    3.6961   -2.5832    0.0000 H   0  0  0  0  0  0  0  0  0  0  0  0
    4.8231   -2.8852    0.0000 H   0  0  0  0  0  0  0  0  0  0  0  0
    5.1250   -1.7582    0.0000 H   0  0  0  0  0  0  0  0  0  0  0  0
    1.6588   -1.9096    0.0000 H   0  0  0  0  0  0  0  0  0  0  0  0
    2.3001   -2.2799    0.0000 H   0  0  0  0  0  0  0  0  0  0  0  0
    1.6199    0.0204    0.0000 H   0  0  0  0  0  0  0  0  0  0  0  0
    2.7535   -0.8495    0.0000 H   0  0  0  0  0  0  0  0  0  0  0  0
    0.4213   -1.1951    0.0000 H   0  0  0  0  0  0  0  0  0  0  0  0
    1.0626   -1.5654    0.0000 H   0  0  0  0  0  0  0  0  0  0  0  0
    3.2409    0.0433    0.0000 H   0  0  0  0  0  0  0  0  0  0  0  0
    2.7804    0.5409    0.0000 H   0  0  0  0  0  0  0  0  0  0  0  0
    2.1026    0.5255    0.0000 H   0  0  0  0  0  0  0  0  0  0  0  0
    1.6337   -2.7041    0.0000 H   0  0  0  0  0  0  0  0  0  0  0  0
    2.1829   -3.4713    0.0000 H   0  0  0  0  0  0  0  0  0  0  0  0
    3.0928   -3.2214    0.0000 H   0  0  0  0  0  0  0  0  0  0  0  0
  1  2  1  0  0  0  0
  2  3  1  0  0  0  0
  3  4  1  0  0  0  0
  4  5  1  0  0  0  0
  5  6  1  0  0  0  0
  6  7  1  0  0  0  0
  7  8  2  0  0  0  0
  8  9  2  0  0  0  0
  3 10  1  0  0  0  0
 10 11  1  0  0  0  0
  3 12  1  0  0  0  0
 12 13  1  0  0  0  0
  1 14  1  0  0  0  0
  1 15  1  0  0  0  0
  1 16  1  0  0  0  0
  4 17  1  0  0  0  0
  4 18  1  0  0  0  0
  5 19  1  0  0  0  0
  5 20  1  0  0  0  0
  6 21  1  0  0  0  0
  6 22  1  0  0  0  0
 11 23  1  0  0  0  0
 11 24  1  0  0  0  0
 11 25  1  0  0  0  0
 13 26  1  0  0  0  0
 13 27  1  0  0  0  0
 13 28  1  0  0  0  0
M  END
> <id>
194; 192

> <casrn>
15396-00-6

> <smiles (First)>


> <Molecular weight>
205.28379821777344

> <name>
(3-isocyanatopropyl)trimethoxysilane

> <Outcome>
1

> <Molecule (RDKit Mol) (InChI Code)>
InChI=1S/C7H15NO4Si/c1-10-13(11-2,12-3)6-4-5-8-7-9/h4-6H2,1-3H3

> <reference>
ECHA

> <molecule_form>
V

$$$$

  Mrv1812 01171911372D          

 28 27  0  0  0  0            999 V2000
   -0.8698   -0.5990    0.0000 C   0  0  0  0  0  0  0  0  0  0  0  0
   -0.1554   -1.0115    0.0000 C   0  0  0  0  0  0  0  0  0  0  0  0
   -0.1554   -1.8365    0.0000 C   0  0  0  0  0  0  0  0  0  0  0  0
   -0.8698   -2.2490    0.0000 C   0  0  0  0  0  0  0  0  0  0  0  0
   -0.8698   -3.0740    0.0000 O   0  0  0  0  0  0  0  0  0  0  0  0
   -1.5843   -1.8365    0.0000 Cl  0  0  0  0  0  0  0  0  0  0  0  0
    0.5591   -0.5990    0.0000 C   0  0  0  0  0  0  0  0  0  0  0  0
    0.5591    0.2260    0.0000 C   0  0  0  0  0  0  0  0  0  0  0  0
    0.5591    1.0510    0.0000 C   0  0  0  0  0  0  0  0  0  0  0  0
    1.3841    0.2260    0.0000 C   0  0  0  0  0  0  0  0  0  0  0  0
   -0.2659    0.2260    0.0000 C   0  0  0  0  0  0  0  0  0  0  0  0
   -0.4573    0.1155    0.0000 H   0  0  0  0  0  0  0  0  0  0  0  0
   -1.5843   -0.1865    0.0000 H   0  0  0  0  0  0  0  0  0  0  0  0
   -1.2823   -1.3135    0.0000 H   0  0  0  0  0  0  0  0  0  0  0  0
   -0.8698   -1.4240    0.0000 H   0  0  0  0  0  0  0  0  0  0  0  0
    0.2980   -2.5258    0.0000 H   0  0  0  0  0  0  0  0  0  0  0  0
    0.6683   -1.8845    0.0000 H   0  0  0  0  0  0  0  0  0  0  0  0
    1.0125   -1.2883    0.0000 H   0  0  0  0  0  0  0  0  0  0  0  0
    1.3827   -0.6470    0.0000 H   0  0  0  0  0  0  0  0  0  0  0  0
    1.3841    1.0510    0.0000 H   0  0  0  0  0  0  0  0  0  0  0  0
    0.5591    1.8760    0.0000 H   0  0  0  0  0  0  0  0  0  0  0  0
   -0.2659    1.0510    0.0000 H   0  0  0  0  0  0  0  0  0  0  0  0
    1.9668   -0.3581    0.0000 H   0  0  0  0  0  0  0  0  0  0  0  0
    2.2091    0.2253    0.0000 H   0  0  0  0  0  0  0  0  0  0  0  0
    1.9677    0.8091    0.0000 H   0  0  0  0  0  0  0  0  0  0  0  0
   -0.4091   -0.5865    0.0000 H   0  0  0  0  0  0  0  0  0  0  0  0
    0.2644   -0.4060    0.0000 H   0  0  0  0  0  0  0  0  0  0  0  0
   -0.9804    0.6385    0.0000 H   0  0  0  0  0  0  0  0  0  0  0  0
  1  2  1  0  0  0  0
  2  3  1  0  0  0  0
  3  4  1  0  0  0  0
  4  5  2  0  0  0  0
  4  6  1  0  0  0  0
  2  7  1  0  0  0  0
  7  8  1  0  0  0  0
  8  9  1  0  0  0  0
  8 10  1  0  0  0  0
  8 11  1  0  0  0  0
  1 12  1  0  0  0  0
  1 13  1  0  0  0  0
  1 14  1  0  0  0  0
  2 15  1  0  0  0  0
  3 16  1  0  0  0  0
  3 17  1  0  0  0  0
  7 18  1  0  0  0  0
  7 19  1  0  0  0  0
  9 20  1  0  0  0  0
  9 21  1  0  0  0  0
  9 22  1  0  0  0  0
 10 23  1  0  0  0  0
 10 24  1  0  0  0  0
 10 25  1  0  0  0  0
 11 26  1  0  0  0  0
 11 27  1  0  0  0  0
 11 28  1  0  0  0  0
M  END
> <id>
1733

> <casrn>
36727-29-4

> <smiles (First)>


> <Molecular weight>
176.68368530273438

> <name>
3,5,5-trimethylhexanoyl chloride

> <Outcome>
1

> <Molecule (RDKit Mol) (InChI Code)>
InChI=1S/C9H17ClO/c1-7(5-8(10)11)6-9(2,3)4/h7H,5-6H2,1-4H3

> <reference>
ECHA

> <molecule_form>
V

$$$$

  Mrv1812 01171911372D          

 16 16  0  0  0  0            999 V2000
    0.7145    2.0625    0.0000 N   0  0  0  0  0  0  0  0  0  0  0  0
    0.7145    1.2375    0.0000 C   0  0  0  0  0  0  0  0  0  0  0  0
    1.4289    0.8250    0.0000 C   0  0  0  0  0  0  0  0  0  0  0  0
    1.4289   -0.0000    0.0000 C   0  0  0  0  0  0  0  0  0  0  0  0
    0.7145   -0.4125    0.0000 C   0  0  0  0  0  0  0  0  0  0  0  0
   -0.0000   -0.0000    0.0000 C   0  0  0  0  0  0  0  0  0  0  0  0
   -0.0000    0.8250    0.0000 C   0  0  0  0  0  0  0  0  0  0  0  0
   -0.7145    1.2375    0.0000 N   0  0  0  0  0  0  0  0  0  0  0  0
    1.4289    2.4750    0.0000 H   0  0  0  0  0  0  0  0  0  0  0  0
   -0.0000    2.4750    0.0000 H   0  0  0  0  0  0  0  0  0  0  0  0
    2.1434    1.2375    0.0000 H   0  0  0  0  0  0  0  0  0  0  0  0
    2.1434   -0.4125    0.0000 H   0  0  0  0  0  0  0  0  0  0  0  0
    0.7145   -1.2375    0.0000 H   0  0  0  0  0  0  0  0  0  0  0  0
   -0.7145   -0.4125    0.0000 H   0  0  0  0  0  0  0  0  0  0  0  0
   -0.7145    2.0625    0.0000 H   0  0  0  0  0  0  0  0  0  0  0  0
   -1.4289    0.8250    0.0000 H   0  0  0  0  0  0  0  0  0  0  0  0
  1  2  1  0  0  0  0
  2  3  4  0  0  0  0
  3  4  4  0  0  0  0
  4  5  4  0  0  0  0
  5  6  4  0  0  0  0
  6  7  4  0  0  0  0
  2  7  4  0  0  0  0
  7  8  1  0  0  0  0
  1  9  1  0  0  0  0
  1 10  1  0  0  0  0
  3 11  1  0  0  0  0
  4 12  1  0  0  0  0
  5 13  1  0  0  0  0
  6 14  1  0  0  0  0
  8 15  1  0  0  0  0
  8 16  1  0  0  0  0
M  END
> <id>
2615

> <casrn>
95-54-5

> <smiles (First)>


> <Molecular weight>
108.14112091064453

> <name>
benzene-1,2-diamine

> <Outcome>
1

> <Molecule (RDKit Mol) (InChI Code)>
InChI=1S/C6H8N2/c7-5-3-1-2-4-6(5)8/h1-4H,7-8H2

> <reference>
ECHA

> <molecule_form>
A

$$$$

  Mrv1812 01171911372D          

 77 79  0  0  0  0            999 V2000
    7.5217    2.4509    0.0000 C   0  0  0  0  0  0  0  0  0  0  0  0
    7.0195    1.7964    0.0000 C   0  0  0  0  0  0  0  0  0  0  0  0
    6.3650    2.2986    0.0000 C   0  0  0  0  0  0  0  0  0  0  0  0
    7.6740    1.2942    0.0000 C   0  0  0  0  0  0  0  0  0  0  0  0
    6.5173    1.1419    0.0000 C   0  0  0  0  0  0  0  0  0  0  0  0
    5.6993    1.2496    0.0000 C   0  0  0  0  0  0  0  0  0  0  0  0
    5.1971    0.5951    0.0000 C   0  0  0  0  0  0  0  0  0  0  0  0
    5.5128   -0.1671    0.0000 C   0  0  0  0  0  0  0  0  0  0  0  0
    6.3308   -0.2748    0.0000 C   0  0  0  0  0  0  0  0  0  0  0  0
    6.6465   -1.0370    0.0000 C   0  0  0  0  0  0  0  0  0  0  0  0
    6.9622   -1.7992    0.0000 C   0  0  0  0  0  0  0  0  0  0  0  0
    7.4087   -0.7213    0.0000 C   0  0  0  0  0  0  0  0  0  0  0  0
    5.8843   -1.3527    0.0000 C   0  0  0  0  0  0  0  0  0  0  0  0
    6.8330    0.3797    0.0000 C   0  0  0  0  0  0  0  0  0  0  0  0
    5.1971   -0.9293    0.0000 O   0  0  0  0  0  0  0  0  0  0  0  0
    4.4349   -1.2451    0.0000 P   0  0  0  0  0  0  0  0  0  0  0  0
    4.9371   -1.8996    0.0000 O   0  0  0  0  0  0  0  0  0  0  0  0
    3.9327   -1.8996    0.0000 O   0  0  0  0  0  0  0  0  0  0  0  0
    3.6727   -0.9293    0.0000 O   0  0  0  0  0  0  0  0  0  0  0  0
    3.3570   -0.1671    0.0000 C   0  0  0  0  0  0  0  0  0  0  0  0
    3.6727    0.5951    0.0000 C   0  0  0  0  0  0  0  0  0  0  0  0
    3.1705    1.2496    0.0000 C   0  0  0  0  0  0  0  0  0  0  0  0
    2.3525    1.1419    0.0000 C   0  0  0  0  0  0  0  0  0  0  0  0
    1.8503    1.7964    0.0000 C   0  0  0  0  0  0  0  0  0  0  0  0
    1.3481    2.4509    0.0000 C   0  0  0  0  0  0  0  0  0  0  0  0
    2.5048    2.2986    0.0000 C   0  0  0  0  0  0  0  0  0  0  0  0
    1.1958    1.2942    0.0000 C   0  0  0  0  0  0  0  0  0  0  0  0
    2.0368    0.3797    0.0000 C   0  0  0  0  0  0  0  0  0  0  0  0
    2.5391   -0.2748    0.0000 C   0  0  0  0  0  0  0  0  0  0  0  0
    2.2233   -1.0370    0.0000 C   0  0  0  0  0  0  0  0  0  0  0  0
    1.9076   -1.7992    0.0000 C   0  0  0  0  0  0  0  0  0  0  0  0
    2.9855   -1.3527    0.0000 C   0  0  0  0  0  0  0  0  0  0  0  0
    1.4611   -0.7213    0.0000 C   0  0  0  0  0  0  0  0  0  0  0  0
    4.4349    0.9108    0.0000 C   0  0  0  0  0  0  0  0  0  0  0  0
    8.1763    1.9487    0.0000 H   0  0  0  0  0  0  0  0  0  0  0  0
    8.0240    3.1054    0.0000 H   0  0  0  0  0  0  0  0  0  0  0  0
    6.8672    2.9531    0.0000 H   0  0  0  0  0  0  0  0  0  0  0  0
    5.9525    3.0131    0.0000 H   0  0  0  0  0  0  0  0  0  0  0  0
    5.5471    2.1909    0.0000 H   0  0  0  0  0  0  0  0  0  0  0  0
    6.1515    1.5017    0.0000 H   0  0  0  0  0  0  0  0  0  0  0  0
    6.9596    0.8817    0.0000 H   0  0  0  0  0  0  0  0  0  0  0  0
    7.7817    0.4762    0.0000 H   0  0  0  0  0  0  0  0  0  0  0  0
    8.4709    1.0806    0.0000 H   0  0  0  0  0  0  0  0  0  0  0  0
    4.8994    1.4513    0.0000 H   0  0  0  0  0  0  0  0  0  0  0  0
    6.2000   -2.1149    0.0000 H   0  0  0  0  0  0  0  0  0  0  0  0
    7.2779   -2.5614    0.0000 H   0  0  0  0  0  0  0  0  0  0  0  0
    7.7244   -1.4835    0.0000 H   0  0  0  0  0  0  0  0  0  0  0  0
    8.2337   -0.7213    0.0000 H   0  0  0  0  0  0  0  0  0  0  0  0
    7.7244    0.0409    0.0000 H   0  0  0  0  0  0  0  0  0  0  0  0
    6.8253   -0.1380    0.0000 H   0  0  0  0  0  0  0  0  0  0  0  0
    5.0929   -1.5858    0.0000 H   0  0  0  0  0  0  0  0  0  0  0  0
    5.5285   -2.0971    0.0000 H   0  0  0  0  0  0  0  0  0  0  0  0
    5.9500   -0.5304    0.0000 H   0  0  0  0  0  0  0  0  0  0  0  0
    6.0151    0.4874    0.0000 H   0  0  0  0  0  0  0  0  0  0  0  0
    3.1147   -1.7919    0.0000 H   0  0  0  0  0  0  0  0  0  0  0  0
    3.4862    2.0118    0.0000 H   0  0  0  0  0  0  0  0  0  0  0  0
    2.0026    2.9531    0.0000 H   0  0  0  0  0  0  0  0  0  0  0  0
    0.8459    3.1054    0.0000 H   0  0  0  0  0  0  0  0  0  0  0  0
    0.6936    1.9487    0.0000 H   0  0  0  0  0  0  0  0  0  0  0  0
    2.7184    1.5017    0.0000 H   0  0  0  0  0  0  0  0  0  0  0  0
    3.3228    2.1909    0.0000 H   0  0  0  0  0  0  0  0  0  0  0  0
    2.9173    3.0131    0.0000 H   0  0  0  0  0  0  0  0  0  0  0  0
    0.3989    1.0806    0.0000 H   0  0  0  0  0  0  0  0  0  0  0  0
    1.0881    0.4762    0.0000 H   0  0  0  0  0  0  0  0  0  0  0  0
    1.9103    0.8817    0.0000 H   0  0  0  0  0  0  0  0  0  0  0  0
    1.6349   -0.3408    0.0000 H   0  0  0  0  0  0  0  0  0  0  0  0
    1.1454   -1.4835    0.0000 H   0  0  0  0  0  0  0  0  0  0  0  0
    1.5919   -2.5614    0.0000 H   0  0  0  0  0  0  0  0  0  0  0  0
    2.6698   -2.1149    0.0000 H   0  0  0  0  0  0  0  0  0  0  0  0
    2.9198   -0.5304    0.0000 H   0  0  0  0  0  0  0  0  0  0  0  0
    3.7558   -1.6482    0.0000 H   0  0  0  0  0  0  0  0  0  0  0  0
    2.2233   -1.6685    0.0000 H   0  0  0  0  0  0  0  0  0  0  0  0
    1.1659    0.0491    0.0000 H   0  0  0  0  0  0  0  0  0  0  0  0
    0.7047   -0.3921    0.0000 H   0  0  0  0  0  0  0  0  0  0  0  0
    0.6962   -1.0302    0.0000 H   0  0  0  0  0  0  0  0  0  0  0  0
    3.9510    1.5789    0.0000 H   0  0  0  0  0  0  0  0  0  0  0  0
    4.4349    0.0858    0.0000 H   0  0  0  0  0  0  0  0  0  0  0  0
  1  2  1  0  0  0  0
  2  3  1  0  0  0  0
  2  4  1  0  0  0  0
  2  5  1  0  0  0  0
  5  6  4  0  0  0  0
  6  7  4  0  0  0  0
  7  8  4  0  0  0  0
  8  9  4  0  0  0  0
  9 10  1  0  0  0  0
 10 11  1  0  0  0  0
 10 12  1  0  0  0  0
 10 13  1  0  0  0  0
  9 14  4  0  0  0  0
  5 14  4  0  0  0  0
  8 15  1  0  0  0  0
 15 16  1  0  0  0  0
 16 17  2  0  0  0  0
 16 18  1  0  0  0  0
 16 19  1  0  0  0  0
 19 20  1  0  0  0  0
 20 21  4  0  0  0  0
 21 22  4  0  0  0  0
 22 23  4  0  0  0  0
 23 24  1  0  0  0  0
 24 25  1  0  0  0  0
 24 26  1  0  0  0  0
 24 27  1  0  0  0  0
 23 28  4  0  0  0  0
 28 29  4  0  0  0  0
 20 29  4  0  0  0  0
 29 30  1  0  0  0  0
 30 31  1  0  0  0  0
 30 32  1  0  0  0  0
 30 33  1  0  0  0  0
 21 34  1  0  0  0  0
  7 34  1  0  0  0  0
  1 35  1  0  0  0  0
  1 36  1  0  0  0  0
  1 37  1  0  0  0  0
  3 38  1  0  0  0  0
  3 39  1  0  0  0  0
  3 40  1  0  0  0  0
  4 41  1  0  0  0  0
  4 42  1  0  0  0  0
  4 43  1  0  0  0  0
  6 44  1  0  0  0  0
 11 45  1  0  0  0  0
 11 46  1  0  0  0  0
 11 47  1  0  0  0  0
 12 48  1  0  0  0  0
 12 49  1  0  0  0  0
 12 50  1  0  0  0  0
 13 51  1  0  0  0  0
 13 52  1  0  0  0  0
 13 53  1  0  0  0  0
 14 54  1  0  0  0  0
 18 55  1  0  0  0  0
 22 56  1  0  0  0  0
 25 57  1  0  0  0  0
 25 58  1  0  0  0  0
 25 59  1  0  0  0  0
 26 60  1  0  0  0  0
 26 61  1  0  0  0  0
 26 62  1  0  0  0  0
 27 63  1  0  0  0  0
 27 64  1  0  0  0  0
 27 65  1  0  0  0  0
 28 66  1  0  0  0  0
 31 67  1  0  0  0  0
 31 68  1  0  0  0  0
 31 69  1  0  0  0  0
 32 70  1  0  0  0  0
 32 71  1  0  0  0  0
 32 72  1  0  0  0  0
 33 73  1  0  0  0  0
 33 74  1  0  0  0  0
 33 75  1  0  0  0  0
 34 76  1  0  0  0  0
 34 77  1  0  0  0  0
M  END
> <id>
3862

> <casrn>
85209-91-2

> <smiles (First)>


> <Molecular weight>
485.6151428222656

> <name>
sodium 5,7,13,15-tetra-tert-butyl-10-oxo-9,11-dioxa-10??????-phosphatricyclo[10.4.0.0??,????]hexadeca-1(12),3,5,7,13,15-hexaen-10-olate

> <Outcome>
1

> <Molecule (RDKit Mol) (InChI Code)>
InChI=1S/C29H43O4P/c1-26(2,3)20-14-18-13-19-15-21(27(4,5)6)17-23(29(10,11)12)25(19)33-34(30,31)32-24(18)22(16-20)28(7,8)9/h14-17H,13H2,1-12H3,(H,30,31)

> <reference>
ECHA

> <molecule_form>
A

$$$$

  Mrv1812 01171911372D          

 48 47  0  0  0  0            999 V2000
    5.9961    4.2876    0.0000 C   0  0  0  0  0  0  0  0  0  0  0  0
    6.7105    4.7001    0.0000 C   0  0  0  0  0  0  0  0  0  0  0  0
    7.4250    4.2876    0.0000 C   0  0  0  0  0  0  0  0  0  0  0  0
    8.1395    4.7001    0.0000 C   0  0  0  0  0  0  0  0  0  0  0  0
    8.8539    4.2876    0.0000 C   0  0  0  0  0  0  0  0  0  0  0  0
    9.5684    4.7001    0.0000 C   0  0  0  0  0  0  0  0  0  0  0  0
   10.2829    4.2876    0.0000 C   0  0  0  0  0  0  0  0  0  0  0  0
   10.9974    4.7001    0.0000 C   0  0  0  0  0  0  0  0  0  0  0  0
   11.7118    4.2876    0.0000 C   0  0  0  0  0  0  0  0  0  0  0  0
   12.4263    4.7001    0.0000 C   0  0  0  0  0  0  0  0  0  0  0  0
   13.1408    4.2876    0.0000 C   0  0  0  0  0  0  0  0  0  0  0  0
   13.8552    4.7001    0.0000 C   0  0  0  0  0  0  0  0  0  0  0  0
   14.5697    4.2876    0.0000 C   0  0  0  0  0  0  0  0  0  0  0  0
   15.2842    4.7001    0.0000 C   0  0  0  0  0  0  0  0  0  0  0  0
   15.9987    4.2876    0.0000 C   0  0  0  0  0  0  0  0  0  0  0  0
   16.7131    4.7001    0.0000 C   0  0  0  0  0  0  0  0  0  0  0  0
    5.2816    4.7001    0.0000 H   0  0  0  0  0  0  0  0  0  0  0  0
    5.9961    3.4626    0.0000 H   0  0  0  0  0  0  0  0  0  0  0  0
    6.7105    5.5251    0.0000 H   0  0  0  0  0  0  0  0  0  0  0  0
    7.0547    3.5503    0.0000 H   0  0  0  0  0  0  0  0  0  0  0  0
    7.7953    3.5503    0.0000 H   0  0  0  0  0  0  0  0  0  0  0  0
    8.5097    5.4373    0.0000 H   0  0  0  0  0  0  0  0  0  0  0  0
    7.7692    5.4373    0.0000 H   0  0  0  0  0  0  0  0  0  0  0  0
    8.4837    3.5503    0.0000 H   0  0  0  0  0  0  0  0  0  0  0  0
    9.2242    3.5503    0.0000 H   0  0  0  0  0  0  0  0  0  0  0  0
    9.9387    5.4373    0.0000 H   0  0  0  0  0  0  0  0  0  0  0  0
    9.1982    5.4373    0.0000 H   0  0  0  0  0  0  0  0  0  0  0  0
    9.9126    3.5503    0.0000 H   0  0  0  0  0  0  0  0  0  0  0  0
   10.6531    3.5503    0.0000 H   0  0  0  0  0  0  0  0  0  0  0  0
   11.3676    5.4373    0.0000 H   0  0  0  0  0  0  0  0  0  0  0  0
   10.6271    5.4373    0.0000 H   0  0  0  0  0  0  0  0  0  0  0  0
   11.3416    3.5503    0.0000 H   0  0  0  0  0  0  0  0  0  0  0  0
   12.0821    3.5503    0.0000 H   0  0  0  0  0  0  0  0  0  0  0  0
   12.7966    5.4373    0.0000 H   0  0  0  0  0  0  0  0  0  0  0  0
   12.0560    5.4373    0.0000 H   0  0  0  0  0  0  0  0  0  0  0  0
   12.7705    3.5503    0.0000 H   0  0  0  0  0  0  0  0  0  0  0  0
   13.5110    3.5503    0.0000 H   0  0  0  0  0  0  0  0  0  0  0  0
   14.2255    5.4373    0.0000 H   0  0  0  0  0  0  0  0  0  0  0  0
   13.4850    5.4373    0.0000 H   0  0  0  0  0  0  0  0  0  0  0  0
   14.1995    3.5503    0.0000 H   0  0  0  0  0  0  0  0  0  0  0  0
   14.9400    3.5503    0.0000 H   0  0  0  0  0  0  0  0  0  0  0  0
   15.6544    5.4373    0.0000 H   0  0  0  0  0  0  0  0  0  0  0  0
   14.9139    5.4373    0.0000 H   0  0  0  0  0  0  0  0  0  0  0  0
   15.6284    3.5503    0.0000 H   0  0  0  0  0  0  0  0  0  0  0  0
   16.3689    3.5503    0.0000 H   0  0  0  0  0  0  0  0  0  0  0  0
   17.1256    3.9856    0.0000 H   0  0  0  0  0  0  0  0  0  0  0  0
   17.4276    5.1126    0.0000 H   0  0  0  0  0  0  0  0  0  0  0  0
   16.3006    5.4145    0.0000 H   0  0  0  0  0  0  0  0  0  0  0  0
  1  2  2  0  0  0  0
  2  3  1  0  0  0  0
  3  4  1  0  0  0  0
  4  5  1  0  0  0  0
  5  6  1  0  0  0  0
  6  7  1  0  0  0  0
  7  8  1  0  0  0  0
  8  9  1  0  0  0  0
  9 10  1  0  0  0  0
 10 11  1  0  0  0  0
 11 12  1  0  0  0  0
 12 13  1  0  0  0  0
 13 14  1  0  0  0  0
 14 15  1  0  0  0  0
 15 16  1  0  0  0  0
  1 17  1  0  0  0  0
  1 18  1  0  0  0  0
  2 19  1  0  0  0  0
  3 20  1  0  0  0  0
  3 21  1  0  0  0  0
  4 22  1  0  0  0  0
  4 23  1  0  0  0  0
  5 24  1  0  0  0  0
  5 25  1  0  0  0  0
  6 26  1  0  0  0  0
  6 27  1  0  0  0  0
  7 28  1  0  0  0  0
  7 29  1  0  0  0  0
  8 30  1  0  0  0  0
  8 31  1  0  0  0  0
  9 32  1  0  0  0  0
  9 33  1  0  0  0  0
 10 34  1  0  0  0  0
 10 35  1  0  0  0  0
 11 36  1  0  0  0  0
 11 37  1  0  0  0  0
 12 38  1  0  0  0  0
 12 39  1  0  0  0  0
 13 40  1  0  0  0  0
 13 41  1  0  0  0  0
 14 42  1  0  0  0  0
 14 43  1  0  0  0  0
 15 44  1  0  0  0  0
 15 45  1  0  0  0  0
 16 46  1  0  0  0  0
 16 47  1  0  0  0  0
 16 48  1  0  0  0  0
M  END
> <id>
3300; 3275; 3254; 3307; 3282; 3302; 3299; 3280

> <casrn>
26952-14-7

> <smiles (First)>


> <Molecular weight>
224.42529296875

> <name>
hexadec-1-ene

> <Outcome>
0

> <Molecule (RDKit Mol) (InChI Code)>
InChI=1S/C16H32/c1-3-5-7-9-11-13-15-16-14-12-10-8-6-4-2/h3H,1,4-16H2,2H3

> <reference>
ECHA

> <molecule_form>
V

$$$$

  Mrv1812 01171911372D          

 31 30  0  0  0  0            999 V2000
    1.2417   -2.2503    0.0000 C   0  0  0  0  0  0  0  0  0  0  0  0
    1.6542   -1.5358    0.0000 C   0  0  0  0  0  0  0  0  0  0  0  0
    2.4792   -1.5358    0.0000 C   0  0  0  0  0  0  0  0  0  0  0  0
    2.8917   -0.8213    0.0000 N   0  0  0  0  0  0  0  0  0  0  0  0
    2.4792   -0.1069    0.0000 C   0  0  0  0  0  0  0  0  0  0  0  0
    1.6542   -0.1069    0.0000 C   0  0  0  0  0  0  0  0  0  0  0  0
    1.2417    0.6076    0.0000 C   0  0  0  0  0  0  0  0  0  0  0  0
    3.7167   -0.8213    0.0000 C   0  0  0  0  0  0  0  0  0  0  0  0
    4.1292   -1.5358    0.0000 O   0  0  0  0  0  0  0  0  0  0  0  0
    4.1292   -0.1069    0.0000 S   0  0  0  0  0  0  0  0  0  0  0  0
    4.9542   -0.1069    0.0000 C   0  0  0  0  0  0  0  0  0  0  0  0
    5.3667    0.6076    0.0000 C   0  0  0  0  0  0  0  0  0  0  0  0
    0.5272   -1.8378    0.0000 H   0  0  0  0  0  0  0  0  0  0  0  0
    0.8292   -2.9648    0.0000 H   0  0  0  0  0  0  0  0  0  0  0  0
    1.9562   -2.6628    0.0000 H   0  0  0  0  0  0  0  0  0  0  0  0
    1.6062   -0.7122    0.0000 H   0  0  0  0  0  0  0  0  0  0  0  0
    0.9649   -1.0825    0.0000 H   0  0  0  0  0  0  0  0  0  0  0  0
    2.5272   -2.3594    0.0000 H   0  0  0  0  0  0  0  0  0  0  0  0
    3.1685   -1.9892    0.0000 H   0  0  0  0  0  0  0  0  0  0  0  0
    3.1685    0.3465    0.0000 H   0  0  0  0  0  0  0  0  0  0  0  0
    2.5272    0.7167    0.0000 H   0  0  0  0  0  0  0  0  0  0  0  0
    0.8495   -0.2887    0.0000 H   0  0  0  0  0  0  0  0  0  0  0  0
    2.0667    0.6076    0.0000 H   0  0  0  0  0  0  0  0  0  0  0  0
    1.4552    1.4045    0.0000 H   0  0  0  0  0  0  0  0  0  0  0  0
    0.5272    1.0201    0.0000 H   0  0  0  0  0  0  0  0  0  0  0  0
    0.6583    0.0242    0.0000 H   0  0  0  0  0  0  0  0  0  0  0  0
    5.0022   -0.9305    0.0000 H   0  0  0  0  0  0  0  0  0  0  0  0
    5.6435   -0.5602    0.0000 H   0  0  0  0  0  0  0  0  0  0  0  0
    6.0812    0.1951    0.0000 H   0  0  0  0  0  0  0  0  0  0  0  0
    5.7792    1.3221    0.0000 H   0  0  0  0  0  0  0  0  0  0  0  0
    4.6522    1.0201    0.0000 H   0  0  0  0  0  0  0  0  0  0  0  0
  1  2  1  0  0  0  0
  2  3  1  0  0  0  0
  3  4  1  0  0  0  0
  4  5  1  0  0  0  0
  5  6  1  0  0  0  0
  6  7  1  0  0  0  0
  4  8  1  0  0  0  0
  8  9  2  0  0  0  0
  8 10  1  0  0  0  0
 10 11  1  0  0  0  0
 11 12  1  0  0  0  0
  1 13  1  0  0  0  0
  1 14  1  0  0  0  0
  1 15  1  0  0  0  0
  2 16  1  0  0  0  0
  2 17  1  0  0  0  0
  3 18  1  0  0  0  0
  3 19  1  0  0  0  0
  5 20  1  0  0  0  0
  5 21  1  0  0  0  0
  6 22  1  0  0  0  0
  6 23  1  0  0  0  0
  7 24  1  0  0  0  0
  7 25  1  0  0  0  0
  7 26  1  0  0  0  0
 11 27  1  0  0  0  0
 11 28  1  0  0  0  0
 12 29  1  0  0  0  0
 12 30  1  0  0  0  0
 12 31  1  0  0  0  0
M  END
> <id>
2527

> <casrn>
759-94-4

> <smiles (First)>


> <Molecular weight>
189.31826782226562

> <name>
S-ethyl dipropylthiocarbamate

> <Outcome>
1

> <Molecule (RDKit Mol) (InChI Code)>
InChI=1S/C9H19NOS/c1-4-7-10(8-5-2)9(11)12-6-3/h4-8H2,1-3H3

> <reference>
ECHA

> <molecule_form>
A

$$$$

  Mrv1812 01171911372D          

 23 24  0  0  0  0            999 V2000
    0.7145   -0.4125    0.0000 N   0  0  0  0  0  0  0  0  0  0  0  0
    0.7145   -1.2375    0.0000 C   0  0  0  0  0  0  0  0  0  0  0  0
    1.4290   -1.6500    0.0000 N   0  0  0  0  0  0  0  0  0  0  0  0
    1.4290   -2.4750    0.0000 C   0  0  0  0  0  0  0  0  0  0  0  0
    2.1434   -2.8875    0.0000 N   0  0  0  0  0  0  0  0  0  0  0  0
    0.7145   -2.8875    0.0000 N   0  0  0  0  0  0  0  0  0  0  0  0
    0.0000   -2.4750    0.0000 C   0  0  0  0  0  0  0  0  0  0  0  0
   -0.7145   -2.8875    0.0000 C   0  0  0  0  0  0  0  0  0  0  0  0
   -0.7145   -3.7125    0.0000 C   0  0  0  0  0  0  0  0  0  0  0  0
   -1.4289   -4.1250    0.0000 C   0  0  0  0  0  0  0  0  0  0  0  0
   -2.1434   -3.7125    0.0000 C   0  0  0  0  0  0  0  0  0  0  0  0
   -2.1434   -2.8875    0.0000 C   0  0  0  0  0  0  0  0  0  0  0  0
   -1.4289   -2.4750    0.0000 C   0  0  0  0  0  0  0  0  0  0  0  0
    0.0000   -1.6500    0.0000 N   0  0  0  0  0  0  0  0  0  0  0  0
    1.4290   -0.0000    0.0000 H   0  0  0  0  0  0  0  0  0  0  0  0
    0.0000   -0.0000    0.0000 H   0  0  0  0  0  0  0  0  0  0  0  0
    2.1434   -3.7125    0.0000 H   0  0  0  0  0  0  0  0  0  0  0  0
    2.8579   -2.4750    0.0000 H   0  0  0  0  0  0  0  0  0  0  0  0
    0.0000   -4.1250    0.0000 H   0  0  0  0  0  0  0  0  0  0  0  0
   -1.4289   -4.9500    0.0000 H   0  0  0  0  0  0  0  0  0  0  0  0
   -2.8579   -4.1250    0.0000 H   0  0  0  0  0  0  0  0  0  0  0  0
   -2.8579   -2.4750    0.0000 H   0  0  0  0  0  0  0  0  0  0  0  0
   -1.4289   -1.6500    0.0000 H   0  0  0  0  0  0  0  0  0  0  0  0
  1  2  1  0  0  0  0
  2  3  4  0  0  0  0
  3  4  4  0  0  0  0
  4  5  1  0  0  0  0
  4  6  4  0  0  0  0
  6  7  4  0  0  0  0
  7  8  1  0  0  0  0
  8  9  4  0  0  0  0
  9 10  4  0  0  0  0
 10 11  4  0  0  0  0
 11 12  4  0  0  0  0
 12 13  4  0  0  0  0
  8 13  4  0  0  0  0
  7 14  4  0  0  0  0
  2 14  4  0  0  0  0
  1 15  1  0  0  0  0
  1 16  1  0  0  0  0
  5 17  1  0  0  0  0
  5 18  1  0  0  0  0
  9 19  1  0  0  0  0
 10 20  1  0  0  0  0
 11 21  1  0  0  0  0
 12 22  1  0  0  0  0
 13 23  1  0  0  0  0
M  END
> <id>
1885

> <casrn>
91-76-9

> <smiles (First)>


> <Molecular weight>
187.20126342773438

> <name>
6-phenyl-1,3,5-triazine-2,4-diamine

> <Outcome>
1

> <Molecule (RDKit Mol) (InChI Code)>
InChI=1S/C9H9N5/c10-8-12-7(13-9(11)14-8)6-4-2-1-3-5-6/h1-5H,(H4,10,11,12,13,14)

> <reference>
ECHA

> <molecule_form>
A

$$$$

  Mrv1812 01171911372D          

 19 18  0  0  0  0            999 V2000
    1.0461    1.4289    0.0000 C   0  0  0  0  0  0  0  0  0  0  0  0
    1.7605    1.8414    0.0000 C   0  0  0  0  0  0  0  0  0  0  0  0
    2.4750    1.4289    0.0000 C   0  0  0  0  0  0  0  0  0  0  0  0
    2.4750    0.6039    0.0000 O   0  0  0  0  0  0  0  0  0  0  0  0
    3.1895    1.8414    0.0000 O   0  0  0  0  0  0  0  0  0  0  0  0
    3.9039    1.4289    0.0000 C   0  0  0  0  0  0  0  0  0  0  0  0
    4.6184    1.8414    0.0000 C   0  0  0  0  0  0  0  0  0  0  0  0
    5.3329    1.4289    0.0000 O   0  0  0  0  0  0  0  0  0  0  0  0
    6.0474    1.8414    0.0000 C   0  0  0  0  0  0  0  0  0  0  0  0
    0.3316    1.8414    0.0000 H   0  0  0  0  0  0  0  0  0  0  0  0
    1.0461    0.6039    0.0000 H   0  0  0  0  0  0  0  0  0  0  0  0
    1.7605    2.6664    0.0000 H   0  0  0  0  0  0  0  0  0  0  0  0
    3.5337    0.6917    0.0000 H   0  0  0  0  0  0  0  0  0  0  0  0
    4.2742    0.6917    0.0000 H   0  0  0  0  0  0  0  0  0  0  0  0
    4.9887    2.5786    0.0000 H   0  0  0  0  0  0  0  0  0  0  0  0
    4.2482    2.5786    0.0000 H   0  0  0  0  0  0  0  0  0  0  0  0
    6.4599    1.1269    0.0000 H   0  0  0  0  0  0  0  0  0  0  0  0
    6.7618    2.2539    0.0000 H   0  0  0  0  0  0  0  0  0  0  0  0
    5.6349    2.5559    0.0000 H   0  0  0  0  0  0  0  0  0  0  0  0
  1  2  2  0  0  0  0
  2  3  1  0  0  0  0
  3  4  2  0  0  0  0
  3  5  1  0  0  0  0
  5  6  1  0  0  0  0
  6  7  1  0  0  0  0
  7  8  1  0  0  0  0
  8  9  1  0  0  0  0
  1 10  1  0  0  0  0
  1 11  1  0  0  0  0
  2 12  1  0  0  0  0
  6 13  1  0  0  0  0
  6 14  1  0  0  0  0
  7 15  1  0  0  0  0
  7 16  1  0  0  0  0
  9 17  1  0  0  0  0
  9 18  1  0  0  0  0
  9 19  1  0  0  0  0
M  END
> <id>
1502

> <casrn>
3121-61-7

> <smiles (First)>


> <Molecular weight>
130.1417999267578

> <name>
2-methoxyethyl prop-2-enoate

> <Outcome>
1

> <Molecule (RDKit Mol) (InChI Code)>
InChI=1S/C6H10O3/c1-3-6(7)9-5-4-8-2/h3H,1,4-5H2,2H3

> <reference>
ECHA

> <molecule_form>
V

$$$$

  Mrv1812 01171911372D          

 42 41  0  0  0  0            999 V2000
    4.7586    3.5732    0.0000 C   0  0  0  0  0  0  0  0  0  0  0  0
    5.4730    3.9857    0.0000 C   0  0  0  0  0  0  0  0  0  0  0  0
    6.1875    3.5732    0.0000 C   0  0  0  0  0  0  0  0  0  0  0  0
    6.9020    3.9857    0.0000 C   0  0  0  0  0  0  0  0  0  0  0  0
    7.6164    3.5732    0.0000 C   0  0  0  0  0  0  0  0  0  0  0  0
    8.3309    3.9857    0.0000 C   0  0  0  0  0  0  0  0  0  0  0  0
    9.0454    3.5732    0.0000 C   0  0  0  0  0  0  0  0  0  0  0  0
    9.7599    3.9857    0.0000 C   0  0  0  0  0  0  0  0  0  0  0  0
   10.4743    3.5732    0.0000 C   0  0  0  0  0  0  0  0  0  0  0  0
   11.1888    3.9857    0.0000 C   0  0  0  0  0  0  0  0  0  0  0  0
   11.9033    3.5732    0.0000 C   0  0  0  0  0  0  0  0  0  0  0  0
   12.6177    3.9857    0.0000 C   0  0  0  0  0  0  0  0  0  0  0  0
   13.3322    3.5732    0.0000 C   0  0  0  0  0  0  0  0  0  0  0  0
   14.0467    3.9857    0.0000 C   0  0  0  0  0  0  0  0  0  0  0  0
    4.0441    3.9857    0.0000 H   0  0  0  0  0  0  0  0  0  0  0  0
    4.7586    2.7482    0.0000 H   0  0  0  0  0  0  0  0  0  0  0  0
    5.4730    4.8107    0.0000 H   0  0  0  0  0  0  0  0  0  0  0  0
    5.8172    2.8360    0.0000 H   0  0  0  0  0  0  0  0  0  0  0  0
    6.5578    2.8360    0.0000 H   0  0  0  0  0  0  0  0  0  0  0  0
    7.2722    4.7230    0.0000 H   0  0  0  0  0  0  0  0  0  0  0  0
    6.5317    4.7230    0.0000 H   0  0  0  0  0  0  0  0  0  0  0  0
    7.2462    2.8360    0.0000 H   0  0  0  0  0  0  0  0  0  0  0  0
    7.9867    2.8360    0.0000 H   0  0  0  0  0  0  0  0  0  0  0  0
    8.7012    4.7230    0.0000 H   0  0  0  0  0  0  0  0  0  0  0  0
    7.9607    4.7230    0.0000 H   0  0  0  0  0  0  0  0  0  0  0  0
    8.6751    2.8360    0.0000 H   0  0  0  0  0  0  0  0  0  0  0  0
    9.4156    2.8360    0.0000 H   0  0  0  0  0  0  0  0  0  0  0  0
   10.1301    4.7230    0.0000 H   0  0  0  0  0  0  0  0  0  0  0  0
    9.3896    4.7230    0.0000 H   0  0  0  0  0  0  0  0  0  0  0  0
   10.1041    2.8360    0.0000 H   0  0  0  0  0  0  0  0  0  0  0  0
   10.8446    2.8360    0.0000 H   0  0  0  0  0  0  0  0  0  0  0  0
   11.5591    4.7230    0.0000 H   0  0  0  0  0  0  0  0  0  0  0  0
   10.8185    4.7230    0.0000 H   0  0  0  0  0  0  0  0  0  0  0  0
   11.5330    2.8360    0.0000 H   0  0  0  0  0  0  0  0  0  0  0  0
   12.2735    2.8360    0.0000 H   0  0  0  0  0  0  0  0  0  0  0  0
   12.9880    4.7230    0.0000 H   0  0  0  0  0  0  0  0  0  0  0  0
   12.2475    4.7230    0.0000 H   0  0  0  0  0  0  0  0  0  0  0  0
   12.9620    2.8360    0.0000 H   0  0  0  0  0  0  0  0  0  0  0  0
   13.7025    2.8360    0.0000 H   0  0  0  0  0  0  0  0  0  0  0  0
   14.4592    3.2712    0.0000 H   0  0  0  0  0  0  0  0  0  0  0  0
   14.7612    4.3982    0.0000 H   0  0  0  0  0  0  0  0  0  0  0  0
   13.6342    4.7002    0.0000 H   0  0  0  0  0  0  0  0  0  0  0  0
  1  2  2  0  0  0  0
  2  3  1  0  0  0  0
  3  4  1  0  0  0  0
  4  5  1  0  0  0  0
  5  6  1  0  0  0  0
  6  7  1  0  0  0  0
  7  8  1  0  0  0  0
  8  9  1  0  0  0  0
  9 10  1  0  0  0  0
 10 11  1  0  0  0  0
 11 12  1  0  0  0  0
 12 13  1  0  0  0  0
 13 14  1  0  0  0  0
  1 15  1  0  0  0  0
  1 16  1  0  0  0  0
  2 17  1  0  0  0  0
  3 18  1  0  0  0  0
  3 19  1  0  0  0  0
  4 20  1  0  0  0  0
  4 21  1  0  0  0  0
  5 22  1  0  0  0  0
  5 23  1  0  0  0  0
  6 24  1  0  0  0  0
  6 25  1  0  0  0  0
  7 26  1  0  0  0  0
  7 27  1  0  0  0  0
  8 28  1  0  0  0  0
  8 29  1  0  0  0  0
  9 30  1  0  0  0  0
  9 31  1  0  0  0  0
 10 32  1  0  0  0  0
 10 33  1  0  0  0  0
 11 34  1  0  0  0  0
 11 35  1  0  0  0  0
 12 36  1  0  0  0  0
 12 37  1  0  0  0  0
 13 38  1  0  0  0  0
 13 39  1  0  0  0  0
 14 40  1  0  0  0  0
 14 41  1  0  0  0  0
 14 42  1  0  0  0  0
M  END
> <id>
3947; 3952; 3938; 3950

> <casrn>
1120-36-1

> <smiles (First)>


> <Molecular weight>
196.37213134765622

> <name>
tetradec-1-ene

> <Outcome>
0

> <Molecule (RDKit Mol) (InChI Code)>
InChI=1S/C14H28/c1-3-5-7-9-11-13-14-12-10-8-6-4-2/h3H,1,4-14H2,2H3

> <reference>
ECHA

> <molecule_form>
V

$$$$

  Mrv1812 01171911372D          

 16 15  0  0  0  0            999 V2000
   -0.1914    0.7123    0.0000 C   0  0  0  0  0  0  0  0  0  0  0  0
    0.5230    1.1248    0.0000 C   0  0  0  0  0  0  0  0  0  0  0  0
    1.2375    0.7123    0.0000 C   0  0  0  0  0  0  0  0  0  0  0  0
    1.9520    1.1248    0.0000 C   0  0  0  0  0  0  0  0  0  0  0  0
    2.6664    0.7123    0.0000 C   0  0  0  0  0  0  0  0  0  0  0  0
    3.3809    1.1248    0.0000 O   0  0  0  0  0  0  0  0  0  0  0  0
   -0.6039    1.4268    0.0000 H   0  0  0  0  0  0  0  0  0  0  0  0
   -0.9059    0.2998    0.0000 H   0  0  0  0  0  0  0  0  0  0  0  0
    0.2211   -0.0022    0.0000 H   0  0  0  0  0  0  0  0  0  0  0  0
    0.8933    1.8620    0.0000 H   0  0  0  0  0  0  0  0  0  0  0  0
    0.1528    1.8620    0.0000 H   0  0  0  0  0  0  0  0  0  0  0  0
    0.8672   -0.0250    0.0000 H   0  0  0  0  0  0  0  0  0  0  0  0
    1.6078   -0.0250    0.0000 H   0  0  0  0  0  0  0  0  0  0  0  0
    2.3222    1.8620    0.0000 H   0  0  0  0  0  0  0  0  0  0  0  0
    1.5817    1.8620    0.0000 H   0  0  0  0  0  0  0  0  0  0  0  0
    2.6664   -0.1127    0.0000 H   0  0  0  0  0  0  0  0  0  0  0  0
  1  2  1  0  0  0  0
  2  3  1  0  0  0  0
  3  4  1  0  0  0  0
  4  5  1  0  0  0  0
  5  6  2  0  0  0  0
  1  7  1  0  0  0  0
  1  8  1  0  0  0  0
  1  9  1  0  0  0  0
  2 10  1  0  0  0  0
  2 11  1  0  0  0  0
  3 12  1  0  0  0  0
  3 13  1  0  0  0  0
  4 14  1  0  0  0  0
  4 15  1  0  0  0  0
  5 16  1  0  0  0  0
M  END
> <id>
4613

> <casrn>
110-62-3

> <smiles (First)>


> <Molecular weight>
86.1323013305664

> <name>
valeraldehyde

> <Outcome>
1

> <Molecule (RDKit Mol) (InChI Code)>
InChI=1S/C5H10O/c1-2-3-4-5-6/h5H,2-4H2,1H3

> <reference>
ECHA

> <molecule_form>
V

$$$$

  Mrv1812 01171911372D          

 14 14  0  0  0  0            999 V2000
   -0.7145    2.8875    0.0000 O   0  0  0  0  0  0  0  0  0  0  0  0
   -0.0000    2.4750    0.0000 C   0  0  0  0  0  0  0  0  0  0  0  0
    0.7145    2.0625    0.0000 N   0  0  0  0  0  0  0  0  0  0  0  0
    0.7145    1.2375    0.0000 C   0  0  0  0  0  0  0  0  0  0  0  0
    1.4289    0.8250    0.0000 C   0  0  0  0  0  0  0  0  0  0  0  0
    1.4289    0.0000    0.0000 C   0  0  0  0  0  0  0  0  0  0  0  0
    0.7145   -0.4125    0.0000 C   0  0  0  0  0  0  0  0  0  0  0  0
   -0.0000    0.0000    0.0000 C   0  0  0  0  0  0  0  0  0  0  0  0
   -0.7145   -0.4125    0.0000 Cl  0  0  0  0  0  0  0  0  0  0  0  0
   -0.0000    0.8250    0.0000 C   0  0  0  0  0  0  0  0  0  0  0  0
    2.1434    1.2375    0.0000 H   0  0  0  0  0  0  0  0  0  0  0  0
    2.1434   -0.4125    0.0000 H   0  0  0  0  0  0  0  0  0  0  0  0
    0.7145   -1.2375    0.0000 H   0  0  0  0  0  0  0  0  0  0  0  0
   -0.7145    1.2375    0.0000 H   0  0  0  0  0  0  0  0  0  0  0  0
  1  2  2  0  0  0  0
  2  3  2  0  0  0  0
  3  4  1  0  0  0  0
  4  5  4  0  0  0  0
  5  6  4  0  0  0  0
  6  7  4  0  0  0  0
  7  8  4  0  0  0  0
  8  9  1  0  0  0  0
  8 10  4  0  0  0  0
  4 10  4  0  0  0  0
  5 11  1  0  0  0  0
  6 12  1  0  0  0  0
  7 13  1  0  0  0  0
 10 14  1  0  0  0  0
M  END
> <id>
1143

> <casrn>
2909-38-8

> <smiles (First)>


> <Molecular weight>
153.56576538085938

> <name>
1-chloro-3-isocyanatobenzene

> <Outcome>
1

> <Molecule (RDKit Mol) (InChI Code)>
InChI=1S/C7H4ClNO/c8-6-2-1-3-7(4-6)9-5-10/h1-4H

> <reference>
ECHA

> <molecule_form>
V

$$$$

  Mrv1812 01171911372D          

 20 21  0  0  0  0            999 V2000
    0.7145   -0.4125    0.0000 O   0  0  0  0  0  0  0  0  0  0  0  0
    0.7145   -1.2375    0.0000 C   0  0  0  0  0  0  0  0  0  0  0  0
    1.3819   -1.7224    0.0000 C   0  0  0  0  0  0  0  0  0  0  0  0
    1.1270   -2.5070    0.0000 C   0  0  0  0  0  0  0  0  0  0  0  0
    0.3020   -2.5070    0.0000 C   0  0  0  0  0  0  0  0  0  0  0  0
   -0.1829   -3.1745    0.0000 O   0  0  0  0  0  0  0  0  0  0  0  0
    0.0470   -1.7224    0.0000 N   0  0  0  0  0  0  0  0  0  0  0  0
   -0.7376   -1.4675    0.0000 C   0  0  0  0  0  0  0  0  0  0  0  0
   -1.3507   -2.0195    0.0000 C   0  0  0  0  0  0  0  0  0  0  0  0
   -2.1353   -1.7646    0.0000 C   0  0  0  0  0  0  0  0  0  0  0  0
   -2.3068   -0.9576    0.0000 C   0  0  0  0  0  0  0  0  0  0  0  0
   -1.6937   -0.4056    0.0000 C   0  0  0  0  0  0  0  0  0  0  0  0
   -0.9091   -0.6605    0.0000 C   0  0  0  0  0  0  0  0  0  0  0  0
    2.1665   -1.4675    0.0000 H   0  0  0  0  0  0  0  0  0  0  0  0
    1.6119   -3.1745    0.0000 H   0  0  0  0  0  0  0  0  0  0  0  0
   -1.1791   -2.8265    0.0000 H   0  0  0  0  0  0  0  0  0  0  0  0
   -2.7484   -2.3166    0.0000 H   0  0  0  0  0  0  0  0  0  0  0  0
   -3.0914   -0.7027    0.0000 H   0  0  0  0  0  0  0  0  0  0  0  0
   -1.8653    0.4014    0.0000 H   0  0  0  0  0  0  0  0  0  0  0  0
   -0.2960   -0.1085    0.0000 H   0  0  0  0  0  0  0  0  0  0  0  0
  1  2  2  0  0  0  0
  2  3  1  0  0  0  0
  3  4  2  0  0  0  0
  4  5  1  0  0  0  0
  5  6  2  0  0  0  0
  5  7  1  0  0  0  0
  2  7  1  0  0  0  0
  7  8  1  0  0  0  0
  8  9  4  0  0  0  0
  9 10  4  0  0  0  0
 10 11  4  0  0  0  0
 11 12  4  0  0  0  0
 12 13  4  0  0  0  0
  8 13  4  0  0  0  0
  3 14  1  0  0  0  0
  4 15  1  0  0  0  0
  9 16  1  0  0  0  0
 10 17  1  0  0  0  0
 11 18  1  0  0  0  0
 12 19  1  0  0  0  0
 13 20  1  0  0  0  0
M  END
> <id>
1208

> <casrn>
941-69-5

> <smiles (First)>


> <Molecular weight>
173.16807556152344

> <name>
1-phenyl-2,5-dihydro-1H-pyrrole-2,5-dione

> <Outcome>
1

> <Molecule (RDKit Mol) (InChI Code)>
InChI=1S/C10H7NO2/c12-9-6-7-10(13)11(9)8-4-2-1-3-5-8/h1-7H

> <reference>
ECHA

> <molecule_form>
A

$$$$

  Mrv1812 01171911372D          

 86 86  0  0  0  0            999 V2000
   -3.0211  -11.7331    0.0000 C   0  0  0  0  0  0  0  0  0  0  0  0
   -2.2285  -11.9620    0.0000 C   0  0  0  0  0  0  0  0  0  0  0  0
   -1.6340  -11.3899    0.0000 C   0  0  0  0  0  0  0  0  0  0  0  0
   -0.8413  -11.6187    0.0000 C   0  0  0  0  0  0  0  0  0  0  0  0
   -0.2469  -11.0467    0.0000 C   0  0  0  0  0  0  0  0  0  0  0  0
    0.5458  -11.2755    0.0000 C   0  0  0  0  0  0  0  0  0  0  0  0
    1.1402  -10.7035    0.0000 C   0  0  0  0  0  0  0  0  0  0  0  0
    1.9329  -10.9323    0.0000 C   0  0  0  0  0  0  0  0  0  0  0  0
    2.5273  -10.3603    0.0000 C   0  0  0  0  0  0  0  0  0  0  0  0
    3.3200  -10.5891    0.0000 C   0  0  0  0  0  0  0  0  0  0  0  0
    3.9145  -10.0170    0.0000 C   0  0  0  0  0  0  0  0  0  0  0  0
    4.7071  -10.2459    0.0000 C   0  0  0  0  0  0  0  0  0  0  0  0
    4.9052  -11.0467    0.0000 O   0  0  0  0  0  0  0  0  0  0  0  0
    5.3016   -9.6738    0.0000 O   0  0  0  0  0  0  0  0  0  0  0  0
    6.0942   -9.9026    0.0000 C   0  0  0  0  0  0  0  0  0  0  0  0
    6.6887   -9.3306    0.0000 C   0  0  0  0  0  0  0  0  0  0  0  0
    7.4813   -9.5594    0.0000 O   0  0  0  0  0  0  0  0  0  0  0  0
    8.0758   -8.9874    0.0000 C   0  0  0  0  0  0  0  0  0  0  0  0
    8.8684   -9.2162    0.0000 C   0  0  0  0  0  0  0  0  0  0  0  0
    9.0666  -10.0170    0.0000 O   0  0  0  0  0  0  0  0  0  0  0  0
    8.4721  -10.5891    0.0000 C   0  0  0  0  0  0  0  0  0  0  0  0
    8.6703  -11.3899    0.0000 C   0  0  0  0  0  0  0  0  0  0  0  0
    8.0758  -11.9620    0.0000 O   0  0  0  0  0  0  0  0  0  0  0  0
    9.4629   -8.6442    0.0000 C   0  0  0  0  0  0  0  0  0  0  0  0
    9.3495   -7.8270    0.0000 O   0  0  0  0  0  0  0  0  0  0  0  0
   10.0917   -7.4666    0.0000 C   0  0  0  0  0  0  0  0  0  0  0  0
   10.6637   -8.0611    0.0000 C   0  0  0  0  0  0  0  0  0  0  0  0
   11.4809   -7.9478    0.0000 O   0  0  0  0  0  0  0  0  0  0  0  0
   11.7913   -7.1834    0.0000 C   0  0  0  0  0  0  0  0  0  0  0  0
   12.6085   -7.0700    0.0000 C   0  0  0  0  0  0  0  0  0  0  0  0
   12.9189   -6.3056    0.0000 O   0  0  0  0  0  0  0  0  0  0  0  0
   10.2751   -8.7889    0.0000 C   0  0  0  0  0  0  0  0  0  0  0  0
   10.6354   -9.5310    0.0000 O   0  0  0  0  0  0  0  0  0  0  0  0
   10.1729  -10.2141    0.0000 C   0  0  0  0  0  0  0  0  0  0  0  0
   10.5332  -10.9563    0.0000 C   0  0  0  0  0  0  0  0  0  0  0  0
   10.0707  -11.6394    0.0000 O   0  0  0  0  0  0  0  0  0  0  0  0
   -2.7923  -10.9405    0.0000 H   0  0  0  0  0  0  0  0  0  0  0  0
   -3.8137  -11.5043    0.0000 H   0  0  0  0  0  0  0  0  0  0  0  0
   -3.2499  -12.5258    0.0000 H   0  0  0  0  0  0  0  0  0  0  0  0
   -2.4108  -12.7666    0.0000 H   0  0  0  0  0  0  0  0  0  0  0  0
   -1.6920  -12.5887    0.0000 H   0  0  0  0  0  0  0  0  0  0  0  0
   -1.4516  -10.5853    0.0000 H   0  0  0  0  0  0  0  0  0  0  0  0
   -2.1705  -10.7632    0.0000 H   0  0  0  0  0  0  0  0  0  0  0  0
   -1.0237  -12.4233    0.0000 H   0  0  0  0  0  0  0  0  0  0  0  0
   -0.3048  -12.2455    0.0000 H   0  0  0  0  0  0  0  0  0  0  0  0
   -0.0645  -10.2421    0.0000 H   0  0  0  0  0  0  0  0  0  0  0  0
   -0.7834  -10.4200    0.0000 H   0  0  0  0  0  0  0  0  0  0  0  0
    0.3634  -12.0801    0.0000 H   0  0  0  0  0  0  0  0  0  0  0  0
    1.0823  -11.9022    0.0000 H   0  0  0  0  0  0  0  0  0  0  0  0
    1.3226   -9.8989    0.0000 H   0  0  0  0  0  0  0  0  0  0  0  0
    0.6037  -10.0767    0.0000 H   0  0  0  0  0  0  0  0  0  0  0  0
    1.7505  -11.7369    0.0000 H   0  0  0  0  0  0  0  0  0  0  0  0
    2.4694  -11.5590    0.0000 H   0  0  0  0  0  0  0  0  0  0  0  0
    2.7097   -9.5557    0.0000 H   0  0  0  0  0  0  0  0  0  0  0  0
    1.9908   -9.7335    0.0000 H   0  0  0  0  0  0  0  0  0  0  0  0
    3.1376  -11.3937    0.0000 H   0  0  0  0  0  0  0  0  0  0  0  0
    3.8565  -11.2158    0.0000 H   0  0  0  0  0  0  0  0  0  0  0  0
    4.0968   -9.2124    0.0000 H   0  0  0  0  0  0  0  0  0  0  0  0
    3.3780   -9.3903    0.0000 H   0  0  0  0  0  0  0  0  0  0  0  0
    5.9119  -10.7072    0.0000 H   0  0  0  0  0  0  0  0  0  0  0  0
    6.6307  -10.5294    0.0000 H   0  0  0  0  0  0  0  0  0  0  0  0
    6.8710   -8.5260    0.0000 H   0  0  0  0  0  0  0  0  0  0  0  0
    6.1522   -8.7039    0.0000 H   0  0  0  0  0  0  0  0  0  0  0  0
    8.2581   -8.1828    0.0000 H   0  0  0  0  0  0  0  0  0  0  0  0
    7.5393   -8.3606    0.0000 H   0  0  0  0  0  0  0  0  0  0  0  0
    8.2739   -9.7882    0.0000 H   0  0  0  0  0  0  0  0  0  0  0  0
    7.6518  -10.5014    0.0000 H   0  0  0  0  0  0  0  0  0  0  0  0
    7.7873  -11.0492    0.0000 H   0  0  0  0  0  0  0  0  0  0  0  0
    9.2759  -11.9501    0.0000 H   0  0  0  0  0  0  0  0  0  0  0  0
    9.4813  -11.2387    0.0000 H   0  0  0  0  0  0  0  0  0  0  0  0
    7.8723  -12.7615    0.0000 H   0  0  0  0  0  0  0  0  0  0  0  0
    9.7027   -9.4335    0.0000 H   0  0  0  0  0  0  0  0  0  0  0  0
   10.6008   -6.8174    0.0000 H   0  0  0  0  0  0  0  0  0  0  0  0
    9.8381   -6.6816    0.0000 H   0  0  0  0  0  0  0  0  0  0  0  0
   11.1357   -8.7378    0.0000 H   0  0  0  0  0  0  0  0  0  0  0  0
   11.6306   -6.3742    0.0000 H   0  0  0  0  0  0  0  0  0  0  0  0
   11.0463   -6.8291    0.0000 H   0  0  0  0  0  0  0  0  0  0  0  0
   12.7692   -7.8792    0.0000 H   0  0  0  0  0  0  0  0  0  0  0  0
   13.3535   -7.4244    0.0000 H   0  0  0  0  0  0  0  0  0  0  0  0
   13.7361   -6.1923    0.0000 H   0  0  0  0  0  0  0  0  0  0  0  0
    9.9148   -8.0467    0.0000 H   0  0  0  0  0  0  0  0  0  0  0  0
    9.3479  -10.2047    0.0000 H   0  0  0  0  0  0  0  0  0  0  0  0
    9.7311  -10.9109    0.0000 H   0  0  0  0  0  0  0  0  0  0  0  0
   11.2421  -11.3783    0.0000 H   0  0  0  0  0  0  0  0  0  0  0  0
   11.2951  -10.6397    0.0000 H   0  0  0  0  0  0  0  0  0  0  0  0
   10.5857  -12.2840    0.0000 H   0  0  0  0  0  0  0  0  0  0  0  0
  1  2  1  0  0  0  0
  2  3  1  0  0  0  0
  3  4  1  0  0  0  0
  4  5  1  0  0  0  0
  5  6  1  0  0  0  0
  6  7  1  0  0  0  0
  7  8  1  0  0  0  0
  8  9  1  0  0  0  0
  9 10  1  0  0  0  0
 10 11  1  0  0  0  0
 11 12  1  0  0  0  0
 12 13  2  0  0  0  0
 12 14  1  0  0  0  0
 14 15  1  0  0  0  0
 15 16  1  0  0  0  0
 16 17  1  0  0  0  0
 17 18  1  0  0  0  0
 18 19  1  0  0  0  0
 19 20  1  0  0  0  0
 20 21  1  0  0  0  0
 21 22  1  0  0  0  0
 22 23  1  0  0  0  0
 19 24  1  0  0  0  0
 24 25  1  0  0  0  0
 25 26  1  0  0  0  0
 26 27  1  0  0  0  0
 27 28  1  0  0  0  0
 28 29  1  0  0  0  0
 29 30  1  0  0  0  0
 30 31  1  0  0  0  0
 27 32  1  0  0  0  0
 24 32  1  0  0  0  0
 32 33  1  0  0  0  0
 33 34  1  0  0  0  0
 34 35  1  0  0  0  0
 35 36  1  0  0  0  0
  1 37  1  0  0  0  0
  1 38  1  0  0  0  0
  1 39  1  0  0  0  0
  2 40  1  0  0  0  0
  2 41  1  0  0  0  0
  3 42  1  0  0  0  0
  3 43  1  0  0  0  0
  4 44  1  0  0  0  0
  4 45  1  0  0  0  0
  5 46  1  0  0  0  0
  5 47  1  0  0  0  0
  6 48  1  0  0  0  0
  6 49  1  0  0  0  0
  7 50  1  0  0  0  0
  7 51  1  0  0  0  0
  8 52  1  0  0  0  0
  8 53  1  0  0  0  0
  9 54  1  0  0  0  0
  9 55  1  0  0  0  0
 10 56  1  0  0  0  0
 10 57  1  0  0  0  0
 11 58  1  0  0  0  0
 11 59  1  0  0  0  0
 15 60  1  0  0  0  0
 15 61  1  0  0  0  0
 16 62  1  0  0  0  0
 16 63  1  0  0  0  0
 18 64  1  0  0  0  0
 18 65  1  0  0  0  0
 19 66  1  0  0  0  0
 21 67  1  0  0  0  0
 21 68  1  0  0  0  0
 22 69  1  0  0  0  0
 22 70  1  0  0  0  0
 23 71  1  0  0  0  0
 24 72  1  0  0  0  0
 26 73  1  0  0  0  0
 26 74  1  0  0  0  0
 27 75  1  0  0  0  0
 29 76  1  0  0  0  0
 29 77  1  0  0  0  0
 30 78  1  0  0  0  0
 30 79  1  0  0  0  0
 31 80  1  0  0  0  0
 32 81  1  0  0  0  0
 34 82  1  0  0  0  0
 34 83  1  0  0  0  0
 35 84  1  0  0  0  0
 35 85  1  0  0  0  0
 36 86  1  0  0  0  0
M  END
> <id>
2547

> <casrn>
9005-64-5

> <smiles (First)>


> <Molecular weight>
522.669189453125

> <name>
Sorbitan monolaurate, ethoxylated

> <Outcome>
0

> <Molecule (RDKit Mol) (InChI Code)>
InChI=1S/C26H50O10/c1-2-3-4-5-6-7-8-9-10-11-24(30)34-19-18-31-20-22(32-15-12-27)26-25(35-17-14-29)23(21-36-26)33-16-13-28/h22-23,25-29H,2-21H2,1H3

> <reference>
ECHA

> <molecule_form>
A

$$$$

  Mrv1812 01171911372D          

 40 40  0  0  0  0            999 V2000
    1.5125    2.1708    0.0000 C   0  0  0  0  0  0  0  0  0  0  0  0
    1.0103    1.5163    0.0000 Si  0  0  0  0  0  0  0  0  0  0  0  0
    0.5080    2.1708    0.0000 C   0  0  0  0  0  0  0  0  0  0  0  0
    1.7725    1.2005    0.0000 O   0  0  0  0  0  0  0  0  0  0  0  0
    2.0882    0.4383    0.0000 Si  0  0  0  0  0  0  0  0  0  0  0  0
    2.7427    0.9406    0.0000 C   0  0  0  0  0  0  0  0  0  0  0  0
    2.7427   -0.0639    0.0000 C   0  0  0  0  0  0  0  0  0  0  0  0
    1.7725   -0.3239    0.0000 O   0  0  0  0  0  0  0  0  0  0  0  0
    1.0103   -0.6396    0.0000 Si  0  0  0  0  0  0  0  0  0  0  0  0
    1.5125   -1.2941    0.0000 C   0  0  0  0  0  0  0  0  0  0  0  0
    0.5080   -1.2941    0.0000 C   0  0  0  0  0  0  0  0  0  0  0  0
    0.2481   -0.3239    0.0000 O   0  0  0  0  0  0  0  0  0  0  0  0
   -0.0677    0.4383    0.0000 Si  0  0  0  0  0  0  0  0  0  0  0  0
   -0.7222   -0.0639    0.0000 C   0  0  0  0  0  0  0  0  0  0  0  0
   -0.7222    0.9406    0.0000 C   0  0  0  0  0  0  0  0  0  0  0  0
    0.2481    1.2005    0.0000 O   0  0  0  0  0  0  0  0  0  0  0  0
    2.1670    1.6685    0.0000 H   0  0  0  0  0  0  0  0  0  0  0  0
    2.0147    2.8253    0.0000 H   0  0  0  0  0  0  0  0  0  0  0  0
    0.8580    2.6730    0.0000 H   0  0  0  0  0  0  0  0  0  0  0  0
    0.1179    2.8977    0.0000 H   0  0  0  0  0  0  0  0  0  0  0  0
   -0.3168    2.1518    0.0000 H   0  0  0  0  0  0  0  0  0  0  0  0
    0.1517    1.4267    0.0000 H   0  0  0  0  0  0  0  0  0  0  0  0
    2.9591    0.1445    0.0000 H   0  0  0  0  0  0  0  0  0  0  0  0
    3.5614    0.8389    0.0000 H   0  0  0  0  0  0  0  0  0  0  0  0
    3.1473    1.6595    0.0000 H   0  0  0  0  0  0  0  0  0  0  0  0
    2.0133   -0.4493    0.0000 H   0  0  0  0  0  0  0  0  0  0  0  0
    2.7888   -0.8876    0.0000 H   0  0  0  0  0  0  0  0  0  0  0  0
    3.5106   -0.3655    0.0000 H   0  0  0  0  0  0  0  0  0  0  0  0
    0.8580   -1.7963    0.0000 H   0  0  0  0  0  0  0  0  0  0  0  0
    2.0147   -1.9486    0.0000 H   0  0  0  0  0  0  0  0  0  0  0  0
    2.1670   -0.7919    0.0000 H   0  0  0  0  0  0  0  0  0  0  0  0
    0.1517   -0.5500    0.0000 H   0  0  0  0  0  0  0  0  0  0  0  0
   -0.3168   -1.2751    0.0000 H   0  0  0  0  0  0  0  0  0  0  0  0
    0.1179   -2.0210    0.0000 H   0  0  0  0  0  0  0  0  0  0  0  0
   -1.2244    0.5906    0.0000 H   0  0  0  0  0  0  0  0  0  0  0  0
   -1.3767   -0.5661    0.0000 H   0  0  0  0  0  0  0  0  0  0  0  0
   -0.2199   -0.7184    0.0000 H   0  0  0  0  0  0  0  0  0  0  0  0
    0.0219    1.2969    0.0000 H   0  0  0  0  0  0  0  0  0  0  0  0
   -0.7032    1.7654    0.0000 H   0  0  0  0  0  0  0  0  0  0  0  0
   -1.4491    1.3307    0.0000 H   0  0  0  0  0  0  0  0  0  0  0  0
  1  2  1  0  0  0  0
  2  3  1  0  0  0  0
  2  4  1  0  0  0  0
  4  5  1  0  0  0  0
  5  6  1  0  0  0  0
  5  7  1  0  0  0  0
  5  8  1  0  0  0  0
  8  9  1  0  0  0  0
  9 10  1  0  0  0  0
  9 11  1  0  0  0  0
  9 12  1  0  0  0  0
 12 13  1  0  0  0  0
 13 14  1  0  0  0  0
 13 15  1  0  0  0  0
 13 16  1  0  0  0  0
  2 16  1  0  0  0  0
  1 17  1  0  0  0  0
  1 18  1  0  0  0  0
  1 19  1  0  0  0  0
  3 20  1  0  0  0  0
  3 21  1  0  0  0  0
  3 22  1  0  0  0  0
  6 23  1  0  0  0  0
  6 24  1  0  0  0  0
  6 25  1  0  0  0  0
  7 26  1  0  0  0  0
  7 27  1  0  0  0  0
  7 28  1  0  0  0  0
 10 29  1  0  0  0  0
 10 30  1  0  0  0  0
 10 31  1  0  0  0  0
 11 32  1  0  0  0  0
 11 33  1  0  0  0  0
 11 34  1  0  0  0  0
 14 35  1  0  0  0  0
 14 36  1  0  0  0  0
 14 37  1  0  0  0  0
 15 38  1  0  0  0  0
 15 39  1  0  0  0  0
 15 40  1  0  0  0  0
M  END
> <id>
3627

> <casrn>
556-67-2

> <smiles (First)>


> <Molecular weight>
296.6157531738281

> <name>
octamethyl-1,3,5,7,2,4,6,8-tetraoxatetrasilocane

> <Outcome>
0

> <Molecule (RDKit Mol) (InChI Code)>
InChI=1S/C8H24O4Si4/c1-13(2)9-14(3,4)11-16(7,8)12-15(5,6)10-13/h1-8H3

> <reference>
ECHA

> <molecule_form>
A

$$$$

  Mrv1812 01171911372D          

 16 15  0  0  0  0            999 V2000
    0.1669   -0.9663    0.0000 C   0  0  0  0  0  0  0  0  0  0  0  0
    0.8814   -0.5538    0.0000 C   0  0  0  0  0  0  0  0  0  0  0  0
    0.8814    0.2712    0.0000 C   0  0  0  0  0  0  0  0  0  0  0  0
    0.8814    1.0962    0.0000 C   0  0  0  0  0  0  0  0  0  0  0  0
    1.7064    0.2712    0.0000 C   0  0  0  0  0  0  0  0  0  0  0  0
    0.0564    0.2712    0.0000 O   0  0  0  0  0  0  0  0  0  0  0  0
   -0.5476   -0.5538    0.0000 H   0  0  0  0  0  0  0  0  0  0  0  0
    0.1669   -1.7913    0.0000 H   0  0  0  0  0  0  0  0  0  0  0  0
    1.5958   -0.9663    0.0000 H   0  0  0  0  0  0  0  0  0  0  0  0
    1.7064    1.0962    0.0000 H   0  0  0  0  0  0  0  0  0  0  0  0
    0.8814    1.9212    0.0000 H   0  0  0  0  0  0  0  0  0  0  0  0
    0.0564    1.0962    0.0000 H   0  0  0  0  0  0  0  0  0  0  0  0
    1.3907   -0.4910    0.0000 H   0  0  0  0  0  0  0  0  0  0  0  0
    2.2897   -0.3121    0.0000 H   0  0  0  0  0  0  0  0  0  0  0  0
    2.4686    0.5869    0.0000 H   0  0  0  0  0  0  0  0  0  0  0  0
   -0.5270   -0.3121    0.0000 H   0  0  0  0  0  0  0  0  0  0  0  0
  1  2  2  0  0  0  0
  2  3  1  0  0  0  0
  3  4  1  0  0  0  0
  3  5  1  0  0  0  0
  3  6  1  0  0  0  0
  1  7  1  0  0  0  0
  1  8  1  0  0  0  0
  2  9  1  0  0  0  0
  4 10  1  0  0  0  0
  4 11  1  0  0  0  0
  4 12  1  0  0  0  0
  5 13  1  0  0  0  0
  5 14  1  0  0  0  0
  5 15  1  0  0  0  0
  6 16  1  0  0  0  0
M  END
> <id>
1510

> <casrn>
115-18-4

> <smiles (First)>


> <Molecular weight>
86.1323013305664

> <name>
2-methylbut-3-en-2-ol

> <Outcome>
0

> <Molecule (RDKit Mol) (InChI Code)>
InChI=1S/C5H10O/c1-4-5(2,3)6/h4,6H,1H2,2-3H3

> <reference>
ECHA

> <molecule_form>
V

$$$$

  Mrv1812 01171911372D          

 16 15  0  0  0  0            999 V2000
    2.4738   -1.4309    0.0000 C   0  0  0  0  0  0  0  0  0  0  0  0
    2.0613   -0.7164    0.0000 C   0  0  0  0  0  0  0  0  0  0  0  0
    1.2363   -0.7164    0.0000 C   0  0  0  0  0  0  0  0  0  0  0  0
    0.8238   -0.0019    0.0000 C   0  0  0  0  0  0  0  0  0  0  0  0
   -0.0012   -0.0019    0.0000 N   0  0  0  0  0  0  0  0  0  0  0  0
    1.7594   -1.8434    0.0000 H   0  0  0  0  0  0  0  0  0  0  0  0
    2.8863   -2.1453    0.0000 H   0  0  0  0  0  0  0  0  0  0  0  0
    3.1883   -1.0184    0.0000 H   0  0  0  0  0  0  0  0  0  0  0  0
    2.7506   -0.2630    0.0000 H   0  0  0  0  0  0  0  0  0  0  0  0
    2.1093    0.1072    0.0000 H   0  0  0  0  0  0  0  0  0  0  0  0
    0.5471   -1.1697    0.0000 H   0  0  0  0  0  0  0  0  0  0  0  0
    1.1884   -1.5400    0.0000 H   0  0  0  0  0  0  0  0  0  0  0  0
    1.5131    0.4514    0.0000 H   0  0  0  0  0  0  0  0  0  0  0  0
    0.8718    0.8217    0.0000 H   0  0  0  0  0  0  0  0  0  0  0  0
   -0.4137    0.7126    0.0000 H   0  0  0  0  0  0  0  0  0  0  0  0
   -0.4137   -0.7164    0.0000 H   0  0  0  0  0  0  0  0  0  0  0  0
  1  2  1  0  0  0  0
  2  3  1  0  0  0  0
  3  4  1  0  0  0  0
  4  5  1  0  0  0  0
  1  6  1  0  0  0  0
  1  7  1  0  0  0  0
  1  8  1  0  0  0  0
  2  9  1  0  0  0  0
  2 10  1  0  0  0  0
  3 11  1  0  0  0  0
  3 12  1  0  0  0  0
  4 13  1  0  0  0  0
  4 14  1  0  0  0  0
  5 15  1  0  0  0  0
  5 16  1  0  0  0  0
M  END
> <id>
2694

> <casrn>
109-73-9

> <smiles (First)>


> <Molecular weight>
73.1368408203125

> <name>
butan-1-amine

> <Outcome>
1

> <Molecule (RDKit Mol) (InChI Code)>
InChI=1S/C4H11N/c1-2-3-4-5/h2-5H2,1H3

> <reference>
ECHA

> <molecule_form>
V

$$$$

  Mrv1812 01171911372D          

 23 23  0  0  0  0            999 V2000
    1.6511    2.2175    0.0000 C   0  0  0  0  0  0  0  0  0  0  0  0
    1.6511    1.3925    0.0000 C   0  0  0  0  0  0  0  0  0  0  0  0
    0.9366    0.9800    0.0000 N   0  0  0  0  0  0  0  0  0  0  0  0
    0.9366    0.1550    0.0000 C   0  0  0  0  0  0  0  0  0  0  0  0
    0.2222   -0.2575    0.0000 C   0  0  0  0  0  0  0  0  0  0  0  0
   -0.4923    0.1550    0.0000 C   0  0  0  0  0  0  0  0  0  0  0  0
   -0.4923    0.9800    0.0000 C   0  0  0  0  0  0  0  0  0  0  0  0
    0.2222    1.3925    0.0000 C   0  0  0  0  0  0  0  0  0  0  0  0
    2.4761    2.2175    0.0000 H   0  0  0  0  0  0  0  0  0  0  0  0
    1.6511    3.0425    0.0000 H   0  0  0  0  0  0  0  0  0  0  0  0
    0.8261    2.2175    0.0000 H   0  0  0  0  0  0  0  0  0  0  0  0
    2.1044    0.7032    0.0000 H   0  0  0  0  0  0  0  0  0  0  0  0
    2.4747    1.3446    0.0000 H   0  0  0  0  0  0  0  0  0  0  0  0
    1.3900   -0.5343    0.0000 H   0  0  0  0  0  0  0  0  0  0  0  0
    1.7602    0.1071    0.0000 H   0  0  0  0  0  0  0  0  0  0  0  0
   -0.1481   -0.9947    0.0000 H   0  0  0  0  0  0  0  0  0  0  0  0
    0.5924   -0.9947    0.0000 H   0  0  0  0  0  0  0  0  0  0  0  0
   -1.3159    0.1071    0.0000 H   0  0  0  0  0  0  0  0  0  0  0  0
   -0.9457   -0.5343    0.0000 H   0  0  0  0  0  0  0  0  0  0  0  0
   -0.9457    1.6693    0.0000 H   0  0  0  0  0  0  0  0  0  0  0  0
   -1.3159    1.0280    0.0000 H   0  0  0  0  0  0  0  0  0  0  0  0
    0.5924    2.1298    0.0000 H   0  0  0  0  0  0  0  0  0  0  0  0
   -0.1481    2.1298    0.0000 H   0  0  0  0  0  0  0  0  0  0  0  0
  1  2  1  0  0  0  0
  2  3  1  0  0  0  0
  3  4  1  0  0  0  0
  4  5  1  0  0  0  0
  5  6  1  0  0  0  0
  6  7  1  0  0  0  0
  7  8  1  0  0  0  0
  3  8  1  0  0  0  0
  1  9  1  0  0  0  0
  1 10  1  0  0  0  0
  1 11  1  0  0  0  0
  2 12  1  0  0  0  0
  2 13  1  0  0  0  0
  4 14  1  0  0  0  0
  4 15  1  0  0  0  0
  5 16  1  0  0  0  0
  5 17  1  0  0  0  0
  6 18  1  0  0  0  0
  6 19  1  0  0  0  0
  7 20  1  0  0  0  0
  7 21  1  0  0  0  0
  8 22  1  0  0  0  0
  8 23  1  0  0  0  0
M  END
> <id>
1164

> <casrn>
766-09-6

> <smiles (First)>


> <Molecular weight>
113.20069885253906

> <name>
1-ethylpiperidine

> <Outcome>
1

> <Molecule (RDKit Mol) (InChI Code)>
InChI=1S/C7H15N/c1-2-8-6-4-3-5-7-8/h2-7H2,1H3

> <reference>
ECHA

> <molecule_form>
V

$$$$

  Mrv1812 01171911372D          

 17 17  0  0  0  0            999 V2000
    0.7145    2.0625    0.0000 C   0  0  0  0  0  0  0  0  0  0  0  0
    0.7145    1.2375    0.0000 C   0  0  0  0  0  0  0  0  0  0  0  0
    1.4289    0.8250    0.0000 C   0  0  0  0  0  0  0  0  0  0  0  0
    1.4289    0.0000    0.0000 N   0  0  0  0  0  0  0  0  0  0  0  0
    0.7145   -0.4125    0.0000 C   0  0  0  0  0  0  0  0  0  0  0  0
   -0.0000    0.0000    0.0000 C   0  0  0  0  0  0  0  0  0  0  0  0
   -0.7145   -0.4125    0.0000 C   0  0  0  0  0  0  0  0  0  0  0  0
   -0.0000    0.8250    0.0000 C   0  0  0  0  0  0  0  0  0  0  0  0
    1.5395    2.0625    0.0000 H   0  0  0  0  0  0  0  0  0  0  0  0
    0.7145    2.8875    0.0000 H   0  0  0  0  0  0  0  0  0  0  0  0
   -0.1105    2.0625    0.0000 H   0  0  0  0  0  0  0  0  0  0  0  0
    2.1434    1.2375    0.0000 H   0  0  0  0  0  0  0  0  0  0  0  0
    0.7145   -1.2375    0.0000 H   0  0  0  0  0  0  0  0  0  0  0  0
   -1.1270    0.3020    0.0000 H   0  0  0  0  0  0  0  0  0  0  0  0
   -1.4289   -0.8250    0.0000 H   0  0  0  0  0  0  0  0  0  0  0  0
   -0.3020   -1.1270    0.0000 H   0  0  0  0  0  0  0  0  0  0  0  0
   -0.7145    1.2375    0.0000 H   0  0  0  0  0  0  0  0  0  0  0  0
  1  2  1  0  0  0  0
  2  3  4  0  0  0  0
  3  4  4  0  0  0  0
  4  5  4  0  0  0  0
  5  6  4  0  0  0  0
  6  7  1  0  0  0  0
  6  8  4  0  0  0  0
  2  8  4  0  0  0  0
  1  9  1  0  0  0  0
  1 10  1  0  0  0  0
  1 11  1  0  0  0  0
  3 12  1  0  0  0  0
  5 13  1  0  0  0  0
  7 14  1  0  0  0  0
  7 15  1  0  0  0  0
  7 16  1  0  0  0  0
  8 17  1  0  0  0  0
M  END
> <id>
1735

> <casrn>
591-22-0

> <smiles (First)>


> <Molecular weight>
107.15306091308594

> <name>
3,5-dimethylpyridine

> <Outcome>
1

> <Molecule (RDKit Mol) (InChI Code)>
InChI=1S/C7H9N/c1-6-3-7(2)5-8-4-6/h3-5H,1-2H3

> <reference>
ECHA

> <molecule_form>
V

$$$$

  Mrv1812 01171911372D          

 47 48  0  0  0  0            999 V2000
    2.2316   -0.4117    0.0000 C   0  0  0  0  0  0  0  0  0  0  0  0
    2.2316   -1.2367    0.0000 C   0  0  0  0  0  0  0  0  0  0  0  0
    2.9460   -1.6492    0.0000 C   0  0  0  0  0  0  0  0  0  0  0  0
    2.9460   -2.4742    0.0000 C   0  0  0  0  0  0  0  0  0  0  0  0
    3.6605   -2.8867    0.0000 C   0  0  0  0  0  0  0  0  0  0  0  0
    3.6605   -3.7117    0.0000 C   0  0  0  0  0  0  0  0  0  0  0  0
    4.3750   -4.1242    0.0000 C   0  0  0  0  0  0  0  0  0  0  0  0
    4.3750   -4.9492    0.0000 C   0  0  0  0  0  0  0  0  0  0  0  0
    3.6605   -5.3617    0.0000 C   0  0  0  0  0  0  0  0  0  0  0  0
    3.6605   -6.1867    0.0000 N   0  0  0  0  0  0  0  0  0  0  0  0
    2.9460   -4.9492    0.0000 C   0  0  0  0  0  0  0  0  0  0  0  0
    2.2316   -5.3617    0.0000 C   0  0  0  0  0  0  0  0  0  0  0  0
    2.9460   -4.1242    0.0000 C   0  0  0  0  0  0  0  0  0  0  0  0
    2.2316   -2.8867    0.0000 C   0  0  0  0  0  0  0  0  0  0  0  0
    1.5171   -2.4742    0.0000 C   0  0  0  0  0  0  0  0  0  0  0  0
    1.5171   -1.6492    0.0000 C   0  0  0  0  0  0  0  0  0  0  0  0
    0.8026   -1.2367    0.0000 N   0  0  0  0  0  0  0  0  0  0  0  0
    3.0566   -0.4117    0.0000 H   0  0  0  0  0  0  0  0  0  0  0  0
    2.2316    0.4133    0.0000 H   0  0  0  0  0  0  0  0  0  0  0  0
    1.4066   -0.4117    0.0000 H   0  0  0  0  0  0  0  0  0  0  0  0
    1.5171   -0.8242    0.0000 H   0  0  0  0  0  0  0  0  0  0  0  0
    3.7696   -1.6013    0.0000 H   0  0  0  0  0  0  0  0  0  0  0  0
    3.3994   -0.9600    0.0000 H   0  0  0  0  0  0  0  0  0  0  0  0
    2.9460   -3.2992    0.0000 H   0  0  0  0  0  0  0  0  0  0  0  0
    4.4841   -2.8388    0.0000 H   0  0  0  0  0  0  0  0  0  0  0  0
    4.1139   -2.1975    0.0000 H   0  0  0  0  0  0  0  0  0  0  0  0
    4.3750   -3.2992    0.0000 H   0  0  0  0  0  0  0  0  0  0  0  0
    5.1502   -4.4064    0.0000 H   0  0  0  0  0  0  0  0  0  0  0  0
    5.1502   -3.8421    0.0000 H   0  0  0  0  0  0  0  0  0  0  0  0
    4.5457   -5.7564    0.0000 H   0  0  0  0  0  0  0  0  0  0  0  0
    5.0343   -5.4451    0.0000 H   0  0  0  0  0  0  0  0  0  0  0  0
    2.9460   -5.7742    0.0000 H   0  0  0  0  0  0  0  0  0  0  0  0
    3.6125   -7.0104    0.0000 H   0  0  0  0  0  0  0  0  0  0  0  0
    4.3978   -6.5570    0.0000 H   0  0  0  0  0  0  0  0  0  0  0  0
    2.2316   -4.5367    0.0000 H   0  0  0  0  0  0  0  0  0  0  0  0
    1.5171   -4.9492    0.0000 H   0  0  0  0  0  0  0  0  0  0  0  0
    1.5171   -5.7742    0.0000 H   0  0  0  0  0  0  0  0  0  0  0  0
    2.2316   -6.1867    0.0000 H   0  0  0  0  0  0  0  0  0  0  0  0
    2.2316   -3.7117    0.0000 H   0  0  0  0  0  0  0  0  0  0  0  0
    3.6605   -4.5367    0.0000 H   0  0  0  0  0  0  0  0  0  0  0  0
    1.5171   -3.2992    0.0000 H   0  0  0  0  0  0  0  0  0  0  0  0
    2.2316   -2.0617    0.0000 H   0  0  0  0  0  0  0  0  0  0  0  0
    0.7419   -2.1921    0.0000 H   0  0  0  0  0  0  0  0  0  0  0  0
    0.7419   -2.7564    0.0000 H   0  0  0  0  0  0  0  0  0  0  0  0
    1.1046   -0.9348    0.0000 H   0  0  0  0  0  0  0  0  0  0  0  0
    0.2605   -0.6149    0.0000 H   0  0  0  0  0  0  0  0  0  0  0  0
   -0.0224   -1.2407    0.0000 H   0  0  0  0  0  0  0  0  0  0  0  0
  1  2  1  0  0  0  0
  2  3  1  0  0  0  0
  3  4  1  0  0  0  0
  4  5  1  0  0  0  0
  5  6  1  0  0  0  0
  6  7  1  0  0  0  0
  7  8  1  0  0  0  0
  8  9  1  0  0  0  0
  9 10  1  0  0  0  0
  9 11  1  0  0  0  0
 11 12  1  0  0  0  0
 11 13  1  0  0  0  0
  6 13  1  0  0  0  0
  4 14  1  0  0  0  0
 14 15  1  0  0  0  0
 15 16  1  0  0  0  0
  2 16  1  0  0  0  0
 16 17  1  0  0  0  0
  1 18  1  0  0  0  0
  1 19  1  0  0  0  0
  1 20  1  0  0  0  0
  2 21  1  0  0  0  0
  3 22  1  0  0  0  0
  3 23  1  0  0  0  0
  4 24  1  0  0  0  0
  5 25  1  0  0  0  0
  5 26  1  0  0  0  0
  6 27  1  0  0  0  0
  7 28  1  0  0  0  0
  7 29  1  0  0  0  0
  8 30  1  0  0  0  0
  8 31  1  0  0  0  0
  9 32  1  0  0  0  0
 10 33  1  0  0  0  0
 10 34  1  0  0  0  0
 11 35  1  0  0  0  0
 12 36  1  0  0  0  0
 12 37  1  0  0  0  0
 12 38  1  0  0  0  0
 13 39  1  0  0  0  0
 13 40  1  0  0  0  0
 14 41  1  0  0  0  0
 14 42  1  0  0  0  0
 15 43  1  0  0  0  0
 15 44  1  0  0  0  0
 16 45  1  0  0  0  0
 17 46  1  0  0  0  0
 17 47  1  0  0  0  0
M  END
> <id>
1819

> <casrn>
6864-37-5

> <smiles (First)>


> <Molecular weight>
238.412109375

> <name>
4-[(4-amino-3-methylcyclohexyl)methyl]-2-methylcyclohexan-1-amine

> <Outcome>
1

> <Molecule (RDKit Mol) (InChI Code)>
InChI=1S/C15H30N2/c1-10-7-12(3-5-14(10)16)9-13-4-6-15(17)11(2)8-13/h10-15H,3-9,16-17H2,1-2H3

> <reference>
ECHA

> <molecule_form>
A

$$$$

  Mrv1812 01171911372D          

  7  6  0  0  0  0            999 V2000
    1.7205   -1.1975    0.0000 C   0  0  0  0  0  0  0  0  0  0  0  0
    1.3080   -0.4830    0.0000 C   0  0  0  0  0  0  0  0  0  0  0  0
    0.4830   -0.4830    0.0000 O   0  0  0  0  0  0  0  0  0  0  0  0
    1.0060   -1.6100    0.0000 H   0  0  0  0  0  0  0  0  0  0  0  0
    2.1330   -1.9120    0.0000 H   0  0  0  0  0  0  0  0  0  0  0  0
    2.4350   -0.7850    0.0000 H   0  0  0  0  0  0  0  0  0  0  0  0
    1.7205    0.2315    0.0000 H   0  0  0  0  0  0  0  0  0  0  0  0
  1  2  1  0  0  0  0
  2  3  2  0  0  0  0
  1  4  1  0  0  0  0
  1  5  1  0  0  0  0
  1  6  1  0  0  0  0
  2  7  1  0  0  0  0
M  END
> <id>
2563

> <casrn>
75-07-0

> <smiles (First)>


> <Molecular weight>
44.05255889892578

> <name>
acetaldehyde

> <Outcome>
0

> <Molecule (RDKit Mol) (InChI Code)>
InChI=1S/C2H4O/c1-2-3/h2H,1H3

> <reference>
ECHA

> <molecule_form>
V

$$$$

  Mrv1812 01171911372D          

 28 27  0  0  0  0            999 V2000
    2.9980    2.5571    0.0000 C   0  0  0  0  0  0  0  0  0  0  0  0
    3.7125    2.1446    0.0000 C   0  0  0  0  0  0  0  0  0  0  0  0
    4.4270    2.5571    0.0000 C   0  0  0  0  0  0  0  0  0  0  0  0
    5.1414    2.1446    0.0000 C   0  0  0  0  0  0  0  0  0  0  0  0
    5.8559    2.5571    0.0000 C   0  0  0  0  0  0  0  0  0  0  0  0
    6.5704    2.1446    0.0000 C   0  0  0  0  0  0  0  0  0  0  0  0
    7.2849    2.5571    0.0000 C   0  0  0  0  0  0  0  0  0  0  0  0
    7.9993    2.1446    0.0000 C   0  0  0  0  0  0  0  0  0  0  0  0
    8.7138    2.5571    0.0000 N   0  0  0  0  0  0  0  0  0  0  0  0
    3.4105    3.2716    0.0000 H   0  0  0  0  0  0  0  0  0  0  0  0
    2.2836    2.9696    0.0000 H   0  0  0  0  0  0  0  0  0  0  0  0
    2.5855    1.8427    0.0000 H   0  0  0  0  0  0  0  0  0  0  0  0
    3.3422    1.4074    0.0000 H   0  0  0  0  0  0  0  0  0  0  0  0
    4.0828    1.4074    0.0000 H   0  0  0  0  0  0  0  0  0  0  0  0
    4.7972    3.2944    0.0000 H   0  0  0  0  0  0  0  0  0  0  0  0
    4.0567    3.2944    0.0000 H   0  0  0  0  0  0  0  0  0  0  0  0
    4.7712    1.4074    0.0000 H   0  0  0  0  0  0  0  0  0  0  0  0
    5.5117    1.4074    0.0000 H   0  0  0  0  0  0  0  0  0  0  0  0
    6.2262    3.2944    0.0000 H   0  0  0  0  0  0  0  0  0  0  0  0
    5.4857    3.2944    0.0000 H   0  0  0  0  0  0  0  0  0  0  0  0
    6.2001    1.4074    0.0000 H   0  0  0  0  0  0  0  0  0  0  0  0
    6.9406    1.4074    0.0000 H   0  0  0  0  0  0  0  0  0  0  0  0
    7.6551    3.2944    0.0000 H   0  0  0  0  0  0  0  0  0  0  0  0
    6.9146    3.2944    0.0000 H   0  0  0  0  0  0  0  0  0  0  0  0
    7.6291    1.4074    0.0000 H   0  0  0  0  0  0  0  0  0  0  0  0
    8.3696    1.4074    0.0000 H   0  0  0  0  0  0  0  0  0  0  0  0
    9.4283    2.1446    0.0000 H   0  0  0  0  0  0  0  0  0  0  0  0
    8.7138    3.3821    0.0000 H   0  0  0  0  0  0  0  0  0  0  0  0
  1  2  1  0  0  0  0
  2  3  1  0  0  0  0
  3  4  1  0  0  0  0
  4  5  1  0  0  0  0
  5  6  1  0  0  0  0
  6  7  1  0  0  0  0
  7  8  1  0  0  0  0
  8  9  1  0  0  0  0
  1 10  1  0  0  0  0
  1 11  1  0  0  0  0
  1 12  1  0  0  0  0
  2 13  1  0  0  0  0
  2 14  1  0  0  0  0
  3 15  1  0  0  0  0
  3 16  1  0  0  0  0
  4 17  1  0  0  0  0
  4 18  1  0  0  0  0
  5 19  1  0  0  0  0
  5 20  1  0  0  0  0
  6 21  1  0  0  0  0
  6 22  1  0  0  0  0
  7 23  1  0  0  0  0
  7 24  1  0  0  0  0
  8 25  1  0  0  0  0
  8 26  1  0  0  0  0
  9 27  1  0  0  0  0
  9 28  1  0  0  0  0
M  END
> <id>
3628; 3629

> <casrn>
111-86-4

> <smiles (First)>


> <Molecular weight>
129.2431640625

> <name>
octan-1-amine

> <Outcome>
1

> <Molecule (RDKit Mol) (InChI Code)>
InChI=1S/C8H19N/c1-2-3-4-5-6-7-8-9/h2-9H2,1H3

> <reference>
ECHA

> <molecule_form>
A

$$$$

  Mrv1812 01171911372D          

 21 20  0  0  0  0            999 V2000
   -0.6161   -2.3069    0.0000 C   0  0  0  0  0  0  0  0  0  0  0  0
    0.0984   -1.8944    0.0000 C   0  0  0  0  0  0  0  0  0  0  0  0
    0.0984   -1.0694    0.0000 C   0  0  0  0  0  0  0  0  0  0  0  0
   -0.6161   -0.6569    0.0000 O   0  0  0  0  0  0  0  0  0  0  0  0
    0.8129   -0.6569    0.0000 O   0  0  0  0  0  0  0  0  0  0  0  0
    0.8129    0.1681    0.0000 C   0  0  0  0  0  0  0  0  0  0  0  0
    0.8129    0.9931    0.0000 C   0  0  0  0  0  0  0  0  0  0  0  0
    1.6379    0.1681    0.0000 C   0  0  0  0  0  0  0  0  0  0  0  0
   -0.0121    0.1681    0.0000 C   0  0  0  0  0  0  0  0  0  0  0  0
   -1.3305   -1.8944    0.0000 H   0  0  0  0  0  0  0  0  0  0  0  0
   -0.6161   -3.1319    0.0000 H   0  0  0  0  0  0  0  0  0  0  0  0
    0.8129   -2.3069    0.0000 H   0  0  0  0  0  0  0  0  0  0  0  0
    1.6379    0.9931    0.0000 H   0  0  0  0  0  0  0  0  0  0  0  0
    0.8129    1.8181    0.0000 H   0  0  0  0  0  0  0  0  0  0  0  0
   -0.0121    0.9931    0.0000 H   0  0  0  0  0  0  0  0  0  0  0  0
    1.3222   -0.5941    0.0000 H   0  0  0  0  0  0  0  0  0  0  0  0
    2.2212   -0.4153    0.0000 H   0  0  0  0  0  0  0  0  0  0  0  0
    2.4001    0.4838    0.0000 H   0  0  0  0  0  0  0  0  0  0  0  0
   -0.7743    0.4838    0.0000 H   0  0  0  0  0  0  0  0  0  0  0  0
   -0.5955   -0.4153    0.0000 H   0  0  0  0  0  0  0  0  0  0  0  0
    0.3036   -0.5941    0.0000 H   0  0  0  0  0  0  0  0  0  0  0  0
  1  2  2  0  0  0  0
  2  3  1  0  0  0  0
  3  4  2  0  0  0  0
  3  5  1  0  0  0  0
  5  6  1  0  0  0  0
  6  7  1  0  0  0  0
  6  8  1  0  0  0  0
  6  9  1  0  0  0  0
  1 10  1  0  0  0  0
  1 11  1  0  0  0  0
  2 12  1  0  0  0  0
  7 13  1  0  0  0  0
  7 14  1  0  0  0  0
  7 15  1  0  0  0  0
  8 16  1  0  0  0  0
  8 17  1  0  0  0  0
  8 18  1  0  0  0  0
  9 19  1  0  0  0  0
  9 20  1  0  0  0  0
  9 21  1  0  0  0  0
M  END
> <id>
3924

> <casrn>
1663-39-4

> <smiles (First)>


> <Molecular weight>
128.16897583007812

> <name>
tert-butyl prop-2-enoate

> <Outcome>
1

> <Molecule (RDKit Mol) (InChI Code)>
InChI=1S/C7H12O2/c1-5-6(8)9-7(2,3)4/h5H,1H2,2-4H3

> <reference>
ECHA

> <molecule_form>
V

$$$$

  Mrv1812 01171911372D          

 21 20  0  0  0  0            999 V2000
   -0.1682    0.7241    0.0000 C   0  0  0  0  0  0  0  0  0  0  0  0
    0.5463    1.1366    0.0000 N   0  0  0  0  0  0  0  0  0  0  0  0
    0.5463    1.9616    0.0000 C   0  0  0  0  0  0  0  0  0  0  0  0
    1.2607    0.7241    0.0000 C   0  0  0  0  0  0  0  0  0  0  0  0
    1.9752    1.1366    0.0000 C   0  0  0  0  0  0  0  0  0  0  0  0
    2.6897    0.7241    0.0000 C   0  0  0  0  0  0  0  0  0  0  0  0
    3.4041    1.1366    0.0000 N   0  0  0  0  0  0  0  0  0  0  0  0
   -0.5807    1.4386    0.0000 H   0  0  0  0  0  0  0  0  0  0  0  0
   -0.8827    0.3116    0.0000 H   0  0  0  0  0  0  0  0  0  0  0  0
    0.2443    0.0097    0.0000 H   0  0  0  0  0  0  0  0  0  0  0  0
    1.3713    1.9616    0.0000 H   0  0  0  0  0  0  0  0  0  0  0  0
    0.5463    2.7866    0.0000 H   0  0  0  0  0  0  0  0  0  0  0  0
   -0.2787    1.9616    0.0000 H   0  0  0  0  0  0  0  0  0  0  0  0
    0.8905   -0.0131    0.0000 H   0  0  0  0  0  0  0  0  0  0  0  0
    1.6310   -0.0131    0.0000 H   0  0  0  0  0  0  0  0  0  0  0  0
    2.3455    1.8739    0.0000 H   0  0  0  0  0  0  0  0  0  0  0  0
    1.6049    1.8739    0.0000 H   0  0  0  0  0  0  0  0  0  0  0  0
    2.3194   -0.0131    0.0000 H   0  0  0  0  0  0  0  0  0  0  0  0
    3.0599   -0.0131    0.0000 H   0  0  0  0  0  0  0  0  0  0  0  0
    4.1186    0.7241    0.0000 H   0  0  0  0  0  0  0  0  0  0  0  0
    3.4041    1.9616    0.0000 H   0  0  0  0  0  0  0  0  0  0  0  0
  1  2  1  0  0  0  0
  2  3  1  0  0  0  0
  2  4  1  0  0  0  0
  4  5  1  0  0  0  0
  5  6  1  0  0  0  0
  6  7  1  0  0  0  0
  1  8  1  0  0  0  0
  1  9  1  0  0  0  0
  1 10  1  0  0  0  0
  3 11  1  0  0  0  0
  3 12  1  0  0  0  0
  3 13  1  0  0  0  0
  4 14  1  0  0  0  0
  4 15  1  0  0  0  0
  5 16  1  0  0  0  0
  5 17  1  0  0  0  0
  6 18  1  0  0  0  0
  6 19  1  0  0  0  0
  7 20  1  0  0  0  0
  7 21  1  0  0  0  0
M  END
> <id>
188

> <casrn>
109-55-7

> <smiles (First)>


> <Molecular weight>
102.17806243896484

> <name>
(3-aminopropyl)dimethylamine

> <Outcome>
0

> <Molecule (RDKit Mol) (InChI Code)>
InChI=1S/C5H14N2/c1-7(2)5-3-4-6/h3-6H2,1-2H3

> <reference>
ECHA

> <molecule_form>
V

$$$$

  Mrv1812 01171911372D          

 11 10  0  0  0  0            999 V2000
    1.6484   -1.4317    0.0000 C   0  0  0  0  0  0  0  0  0  0  0  0
    1.2359   -0.7173    0.0000 Si  0  0  0  0  0  0  0  0  0  0  0  0
    1.9504   -0.3048    0.0000 Cl  0  0  0  0  0  0  0  0  0  0  0  0
    0.5214   -1.1298    0.0000 Cl  0  0  0  0  0  0  0  0  0  0  0  0
    0.8234   -0.0028    0.0000 C   0  0  0  0  0  0  0  0  0  0  0  0
   -0.0016   -0.0028    0.0000 Cl  0  0  0  0  0  0  0  0  0  0  0  0
    0.9339   -1.8442    0.0000 H   0  0  0  0  0  0  0  0  0  0  0  0
    2.0609   -2.1462    0.0000 H   0  0  0  0  0  0  0  0  0  0  0  0
    2.3629   -1.0192    0.0000 H   0  0  0  0  0  0  0  0  0  0  0  0
    1.5127    0.4506    0.0000 H   0  0  0  0  0  0  0  0  0  0  0  0
    0.8714    0.8208    0.0000 H   0  0  0  0  0  0  0  0  0  0  0  0
  1  2  1  0  0  0  0
  2  3  1  0  0  0  0
  2  4  1  0  0  0  0
  2  5  1  0  0  0  0
  5  6  1  0  0  0  0
  1  7  1  0  0  0  0
  1  8  1  0  0  0  0
  1  9  1  0  0  0  0
  5 10  1  0  0  0  0
  5 11  1  0  0  0  0
M  END
> <id>
2937

> <casrn>
1558-33-4

> <smiles (First)>


> <Molecular weight>
163.50559997558594

> <name>
dichloro(chloromethyl)methylsilane

> <Outcome>
1

> <Molecule (RDKit Mol) (InChI Code)>
InChI=1S/C2H5Cl3Si/c1-6(4,5)2-3/h2H2,1H3

> <reference>
ECHA

> <molecule_form>
V

$$$$

  Mrv1812 01171911372D          

 17 18  0  0  0  0            999 V2000
   -0.2268    0.5418    0.0000 C   0  0  0  0  0  0  0  0  0  0  0  0
   -0.2268   -0.2832    0.0000 C   0  0  0  0  0  0  0  0  0  0  0  0
    0.4877   -0.6957    0.0000 C   0  0  0  0  0  0  0  0  0  0  0  0
    1.2022   -0.2832    0.0000 C   0  0  0  0  0  0  0  0  0  0  0  0
    1.2022    0.5418    0.0000 C   0  0  0  0  0  0  0  0  0  0  0  0
    0.4877    0.9543    0.0000 C   0  0  0  0  0  0  0  0  0  0  0  0
    0.2814    0.1293    0.0000 C   0  0  0  0  0  0  0  0  0  0  0  0
   -0.9413    0.9543    0.0000 H   0  0  0  0  0  0  0  0  0  0  0  0
   -0.9413   -0.6957    0.0000 H   0  0  0  0  0  0  0  0  0  0  0  0
    0.4877   -1.5207    0.0000 H   0  0  0  0  0  0  0  0  0  0  0  0
    1.6555   -0.9725    0.0000 H   0  0  0  0  0  0  0  0  0  0  0  0
    2.0258   -0.3312    0.0000 H   0  0  0  0  0  0  0  0  0  0  0  0
    2.0258    0.5898    0.0000 H   0  0  0  0  0  0  0  0  0  0  0  0
    1.6555    1.2311    0.0000 H   0  0  0  0  0  0  0  0  0  0  0  0
    0.4877    1.7793    0.0000 H   0  0  0  0  0  0  0  0  0  0  0  0
    1.0272   -0.2235    0.0000 H   0  0  0  0  0  0  0  0  0  0  0  0
    1.0272    0.4821    0.0000 H   0  0  0  0  0  0  0  0  0  0  0  0
  1  2  2  0  0  0  0
  2  3  1  0  0  0  0
  3  4  1  0  0  0  0
  4  5  1  0  0  0  0
  5  6  1  0  0  0  0
  1  6  1  0  0  0  0
  6  7  1  0  0  0  0
  3  7  1  0  0  0  0
  1  8  1  0  0  0  0
  2  9  1  0  0  0  0
  3 10  1  0  0  0  0
  4 11  1  0  0  0  0
  4 12  1  0  0  0  0
  5 13  1  0  0  0  0
  5 14  1  0  0  0  0
  6 15  1  0  0  0  0
  7 16  1  0  0  0  0
  7 17  1  0  0  0  0
M  END
> <id>
2645

> <casrn>
498-66-8

> <smiles (First)>


> <Molecular weight>
94.15430450439453

> <name>
bicyclo[2.2.1]hept-2-ene

> <Outcome>
0

> <Molecule (RDKit Mol) (InChI Code)>
InChI=1S/C7H10/c1-2-7-4-3-6(1)5-7/h1-2,6-7H,3-5H2

> <reference>
ECHA

> <molecule_form>
A

$$$$

  Mrv1812 01171911372D          

 28 27  0  0  0  0            999 V2000
    0.0432   -1.4206    0.0000 C   0  0  0  0  0  0  0  0  0  0  0  0
    0.8682   -1.4206    0.0000 C   0  0  0  0  0  0  0  0  0  0  0  0
    1.2807   -0.7062    0.0000 N   0  0  0  0  0  0  0  0  0  0  0  0
    2.1057   -0.7062    0.0000 C   0  0  0  0  0  0  0  0  0  0  0  0
    2.5182    0.0083    0.0000 C   0  0  0  0  0  0  0  0  0  0  0  0
    2.5182   -1.4206    0.0000 C   0  0  0  0  0  0  0  0  0  0  0  0
    0.8682    0.0083    0.0000 C   0  0  0  0  0  0  0  0  0  0  0  0
    1.2807    0.7228    0.0000 C   0  0  0  0  0  0  0  0  0  0  0  0
    0.0432    0.0083    0.0000 C   0  0  0  0  0  0  0  0  0  0  0  0
    0.0432   -0.5956    0.0000 H   0  0  0  0  0  0  0  0  0  0  0  0
   -0.7818   -1.4206    0.0000 H   0  0  0  0  0  0  0  0  0  0  0  0
    0.0432   -2.2456    0.0000 H   0  0  0  0  0  0  0  0  0  0  0  0
    0.9161   -2.2442    0.0000 H   0  0  0  0  0  0  0  0  0  0  0  0
    1.5575   -1.8740    0.0000 H   0  0  0  0  0  0  0  0  0  0  0  0
    1.6932    0.0083    0.0000 H   0  0  0  0  0  0  0  0  0  0  0  0
    3.1015   -0.5751    0.0000 H   0  0  0  0  0  0  0  0  0  0  0  0
    3.2326    0.4208    0.0000 H   0  0  0  0  0  0  0  0  0  0  0  0
    2.3047    0.8052    0.0000 H   0  0  0  0  0  0  0  0  0  0  0  0
    1.8037   -1.8331    0.0000 H   0  0  0  0  0  0  0  0  0  0  0  0
    2.9307   -2.1351    0.0000 H   0  0  0  0  0  0  0  0  0  0  0  0
    3.2326   -1.0081    0.0000 H   0  0  0  0  0  0  0  0  0  0  0  0
    0.4557   -0.7062    0.0000 H   0  0  0  0  0  0  0  0  0  0  0  0
    2.0776    0.9363    0.0000 H   0  0  0  0  0  0  0  0  0  0  0  0
    1.2807    1.5478    0.0000 H   0  0  0  0  0  0  0  0  0  0  0  0
    0.4838    0.9363    0.0000 H   0  0  0  0  0  0  0  0  0  0  0  0
    0.3589    0.7705    0.0000 H   0  0  0  0  0  0  0  0  0  0  0  0
   -0.5402    0.5917    0.0000 H   0  0  0  0  0  0  0  0  0  0  0  0
   -0.7190   -0.3074    0.0000 H   0  0  0  0  0  0  0  0  0  0  0  0
  1  2  1  0  0  0  0
  2  3  1  0  0  0  0
  3  4  1  0  0  0  0
  4  5  1  0  0  0  0
  4  6  1  0  0  0  0
  3  7  1  0  0  0  0
  7  8  1  0  0  0  0
  7  9  1  0  0  0  0
  1 10  1  0  0  0  0
  1 11  1  0  0  0  0
  1 12  1  0  0  0  0
  2 13  1  0  0  0  0
  2 14  1  0  0  0  0
  4 15  1  0  0  0  0
  5 16  1  0  0  0  0
  5 17  1  0  0  0  0
  5 18  1  0  0  0  0
  6 19  1  0  0  0  0
  6 20  1  0  0  0  0
  6 21  1  0  0  0  0
  7 22  1  0  0  0  0
  8 23  1  0  0  0  0
  8 24  1  0  0  0  0
  8 25  1  0  0  0  0
  9 26  1  0  0  0  0
  9 27  1  0  0  0  0
  9 28  1  0  0  0  0
M  END
> <id>
3206

> <casrn>
7087-68-5

> <smiles (First)>


> <Molecular weight>
129.2431640625

> <name>
ethylbis(propan-2-yl)amine

> <Outcome>
1

> <Molecule (RDKit Mol) (InChI Code)>
InChI=1S/C8H19N/c1-6-9(7(2)3)8(4)5/h7-8H,6H2,1-5H3

> <reference>
ECHA

> <molecule_form>
V

$$$$

  Mrv1812 01171911372D          

 13 12  0  0  0  0            999 V2000
    1.3009    0.7972    0.0000 C   0  0  0  0  0  0  0  0  0  0  0  0
    0.8884    0.0827    0.0000 C   0  0  0  0  0  0  0  0  0  0  0  0
    1.3009   -0.6318    0.0000 C   0  0  0  0  0  0  0  0  0  0  0  0
    0.0634    0.0827    0.0000 N   0  0  0  0  0  0  0  0  0  0  0  0
    2.0154    0.3847    0.0000 H   0  0  0  0  0  0  0  0  0  0  0  0
    1.7134    1.5117    0.0000 H   0  0  0  0  0  0  0  0  0  0  0  0
    0.5865    1.2097    0.0000 H   0  0  0  0  0  0  0  0  0  0  0  0
    1.7134    0.0827    0.0000 H   0  0  0  0  0  0  0  0  0  0  0  0
    0.5040   -0.8453    0.0000 H   0  0  0  0  0  0  0  0  0  0  0  0
    1.3009   -1.4568    0.0000 H   0  0  0  0  0  0  0  0  0  0  0  0
    2.0978   -0.8453    0.0000 H   0  0  0  0  0  0  0  0  0  0  0  0
   -0.3491    0.7972    0.0000 H   0  0  0  0  0  0  0  0  0  0  0  0
   -0.3491   -0.6318    0.0000 H   0  0  0  0  0  0  0  0  0  0  0  0
  1  2  1  0  0  0  0
  2  3  1  0  0  0  0
  2  4  1  0  0  0  0
  1  5  1  0  0  0  0
  1  6  1  0  0  0  0
  1  7  1  0  0  0  0
  2  8  1  0  0  0  0
  3  9  1  0  0  0  0
  3 10  1  0  0  0  0
  3 11  1  0  0  0  0
  4 12  1  0  0  0  0
  4 13  1  0  0  0  0
M  END
> <id>
3790; 3791

> <casrn>
75-31-0

> <smiles (First)>


> <Molecular weight>
59.110260009765625

> <name>
propan-2-amine

> <Outcome>
1

> <Molecule (RDKit Mol) (InChI Code)>
InChI=1S/C3H9N/c1-3(2)4/h3H,4H2,1-2H3

> <reference>
ECHA

> <molecule_form>
V

$$$$

  Mrv1812 01171911372D          

  5  4  0  0  0  0            999 V2000
    2.2977   -2.0834    0.0000 Cl  0  0  0  0  0  0  0  0  0  0  0  0
    1.8852   -1.3689    0.0000 C   0  0  0  0  0  0  0  0  0  0  0  0
    1.0602   -1.3689    0.0000 Br  0  0  0  0  0  0  0  0  0  0  0  0
    2.5745   -0.9156    0.0000 H   0  0  0  0  0  0  0  0  0  0  0  0
    1.9332   -0.5453    0.0000 H   0  0  0  0  0  0  0  0  0  0  0  0
  1  2  1  0  0  0  0
  2  3  1  0  0  0  0
  2  4  1  0  0  0  0
  2  5  1  0  0  0  0
M  END
> <id>
2683

> <casrn>
74-97-5

> <smiles (First)>


> <Molecular weight>
129.38357543945312

> <name>
bromo(chloro)methane

> <Outcome>
0

> <Molecule (RDKit Mol) (InChI Code)>
InChI=1S/CH2BrCl/c2-1-3/h1H2

> <reference>
ECHA

> <molecule_form>
V

$$$$

  Mrv1812 01171911372D          

 27 26  0  0  0  0            999 V2000
    2.9980    2.5559    0.0000 C   0  0  0  0  0  0  0  0  0  0  0  0
    3.7125    2.1434    0.0000 C   0  0  0  0  0  0  0  0  0  0  0  0
    4.4270    2.5559    0.0000 C   0  0  0  0  0  0  0  0  0  0  0  0
    5.1414    2.1434    0.0000 C   0  0  0  0  0  0  0  0  0  0  0  0
    5.8559    2.5559    0.0000 C   0  0  0  0  0  0  0  0  0  0  0  0
    6.5704    2.1434    0.0000 C   0  0  0  0  0  0  0  0  0  0  0  0
    7.2849    2.5559    0.0000 C   0  0  0  0  0  0  0  0  0  0  0  0
    7.9993    2.1434    0.0000 C   0  0  0  0  0  0  0  0  0  0  0  0
    8.7138    2.5559    0.0000 C   0  0  0  0  0  0  0  0  0  0  0  0
    2.9980    3.3809    0.0000 H   0  0  0  0  0  0  0  0  0  0  0  0
    2.2836    2.1434    0.0000 H   0  0  0  0  0  0  0  0  0  0  0  0
    3.7125    1.3184    0.0000 H   0  0  0  0  0  0  0  0  0  0  0  0
    4.7972    3.2931    0.0000 H   0  0  0  0  0  0  0  0  0  0  0  0
    4.0567    3.2931    0.0000 H   0  0  0  0  0  0  0  0  0  0  0  0
    4.7712    1.4062    0.0000 H   0  0  0  0  0  0  0  0  0  0  0  0
    5.5117    1.4062    0.0000 H   0  0  0  0  0  0  0  0  0  0  0  0
    6.2262    3.2931    0.0000 H   0  0  0  0  0  0  0  0  0  0  0  0
    5.4857    3.2931    0.0000 H   0  0  0  0  0  0  0  0  0  0  0  0
    6.2001    1.4062    0.0000 H   0  0  0  0  0  0  0  0  0  0  0  0
    6.9406    1.4062    0.0000 H   0  0  0  0  0  0  0  0  0  0  0  0
    7.6551    3.2931    0.0000 H   0  0  0  0  0  0  0  0  0  0  0  0
    6.9146    3.2931    0.0000 H   0  0  0  0  0  0  0  0  0  0  0  0
    7.6291    1.4062    0.0000 H   0  0  0  0  0  0  0  0  0  0  0  0
    8.3696    1.4062    0.0000 H   0  0  0  0  0  0  0  0  0  0  0  0
    9.1263    1.8414    0.0000 H   0  0  0  0  0  0  0  0  0  0  0  0
    9.4283    2.9684    0.0000 H   0  0  0  0  0  0  0  0  0  0  0  0
    8.3013    3.2704    0.0000 H   0  0  0  0  0  0  0  0  0  0  0  0
  1  2  2  0  0  0  0
  2  3  1  0  0  0  0
  3  4  1  0  0  0  0
  4  5  1  0  0  0  0
  5  6  1  0  0  0  0
  6  7  1  0  0  0  0
  7  8  1  0  0  0  0
  8  9  1  0  0  0  0
  1 10  1  0  0  0  0
  1 11  1  0  0  0  0
  2 12  1  0  0  0  0
  3 13  1  0  0  0  0
  3 14  1  0  0  0  0
  4 15  1  0  0  0  0
  4 16  1  0  0  0  0
  5 17  1  0  0  0  0
  5 18  1  0  0  0  0
  6 19  1  0  0  0  0
  6 20  1  0  0  0  0
  7 21  1  0  0  0  0
  7 22  1  0  0  0  0
  8 23  1  0  0  0  0
  8 24  1  0  0  0  0
  9 25  1  0  0  0  0
  9 26  1  0  0  0  0
  9 27  1  0  0  0  0
M  END
> <id>
1986; 1978

> <casrn>
68526-55-6

> <smiles (First)>


> <Molecular weight>
126.23922729492188

> <name>
Alkenes, C8-10, C9-rich

> <Outcome>
0

> <Molecule (RDKit Mol) (InChI Code)>
InChI=1S/C9H18/c1-3-5-7-9-8-6-4-2/h3H,1,4-9H2,2H3

> <reference>
ECHA

> <molecule_form>
V

$$$$

  Mrv1812 01171911372D          

 36 35  0  0  0  0            999 V2000
    5.4730    3.9849    0.0000 C   0  0  0  0  0  0  0  0  0  0  0  0
    6.1875    3.5724    0.0000 C   0  0  0  0  0  0  0  0  0  0  0  0
    6.9020    3.9849    0.0000 C   0  0  0  0  0  0  0  0  0  0  0  0
    7.6164    3.5724    0.0000 C   0  0  0  0  0  0  0  0  0  0  0  0
    8.3309    3.9849    0.0000 C   0  0  0  0  0  0  0  0  0  0  0  0
    9.0454    3.5724    0.0000 C   0  0  0  0  0  0  0  0  0  0  0  0
    9.7599    3.9849    0.0000 C   0  0  0  0  0  0  0  0  0  0  0  0
   10.4743    3.5724    0.0000 C   0  0  0  0  0  0  0  0  0  0  0  0
   11.1888    3.9849    0.0000 C   0  0  0  0  0  0  0  0  0  0  0  0
   11.9033    3.5724    0.0000 C   0  0  0  0  0  0  0  0  0  0  0  0
   12.6177    3.9849    0.0000 C   0  0  0  0  0  0  0  0  0  0  0  0
   12.6177    4.8099    0.0000 O   0  0  0  0  0  0  0  0  0  0  0  0
   13.3322    3.5724    0.0000 O   0  0  0  0  0  0  0  0  0  0  0  0
   14.0467    3.9849    0.0000 C   0  0  0  0  0  0  0  0  0  0  0  0
    5.4730    4.8099    0.0000 H   0  0  0  0  0  0  0  0  0  0  0  0
    4.7586    3.5724    0.0000 H   0  0  0  0  0  0  0  0  0  0  0  0
    6.1875    2.7474    0.0000 H   0  0  0  0  0  0  0  0  0  0  0  0
    7.2722    4.7221    0.0000 H   0  0  0  0  0  0  0  0  0  0  0  0
    6.5317    4.7221    0.0000 H   0  0  0  0  0  0  0  0  0  0  0  0
    7.2462    2.8352    0.0000 H   0  0  0  0  0  0  0  0  0  0  0  0
    7.9867    2.8352    0.0000 H   0  0  0  0  0  0  0  0  0  0  0  0
    8.7012    4.7221    0.0000 H   0  0  0  0  0  0  0  0  0  0  0  0
    7.9607    4.7221    0.0000 H   0  0  0  0  0  0  0  0  0  0  0  0
    8.6751    2.8352    0.0000 H   0  0  0  0  0  0  0  0  0  0  0  0
    9.4156    2.8352    0.0000 H   0  0  0  0  0  0  0  0  0  0  0  0
   10.1301    4.7221    0.0000 H   0  0  0  0  0  0  0  0  0  0  0  0
    9.3896    4.7221    0.0000 H   0  0  0  0  0  0  0  0  0  0  0  0
   10.1041    2.8352    0.0000 H   0  0  0  0  0  0  0  0  0  0  0  0
   10.8446    2.8352    0.0000 H   0  0  0  0  0  0  0  0  0  0  0  0
   11.5591    4.7221    0.0000 H   0  0  0  0  0  0  0  0  0  0  0  0
   10.8185    4.7221    0.0000 H   0  0  0  0  0  0  0  0  0  0  0  0
   11.5330    2.8352    0.0000 H   0  0  0  0  0  0  0  0  0  0  0  0
   12.2735    2.8352    0.0000 H   0  0  0  0  0  0  0  0  0  0  0  0
   14.4592    3.2704    0.0000 H   0  0  0  0  0  0  0  0  0  0  0  0
   14.7612    4.3974    0.0000 H   0  0  0  0  0  0  0  0  0  0  0  0
   13.6342    4.6994    0.0000 H   0  0  0  0  0  0  0  0  0  0  0  0
  1  2  2  0  0  0  0
  2  3  1  0  0  0  0
  3  4  1  0  0  0  0
  4  5  1  0  0  0  0
  5  6  1  0  0  0  0
  6  7  1  0  0  0  0
  7  8  1  0  0  0  0
  8  9  1  0  0  0  0
  9 10  1  0  0  0  0
 10 11  1  0  0  0  0
 11 12  2  0  0  0  0
 11 13  1  0  0  0  0
 13 14  1  0  0  0  0
  1 15  1  0  0  0  0
  1 16  1  0  0  0  0
  2 17  1  0  0  0  0
  3 18  1  0  0  0  0
  3 19  1  0  0  0  0
  4 20  1  0  0  0  0
  4 21  1  0  0  0  0
  5 22  1  0  0  0  0
  5 23  1  0  0  0  0
  6 24  1  0  0  0  0
  6 25  1  0  0  0  0
  7 26  1  0  0  0  0
  7 27  1  0  0  0  0
  8 28  1  0  0  0  0
  8 29  1  0  0  0  0
  9 30  1  0  0  0  0
  9 31  1  0  0  0  0
 10 32  1  0  0  0  0
 10 33  1  0  0  0  0
 14 34  1  0  0  0  0
 14 35  1  0  0  0  0
 14 36  1  0  0  0  0
M  END
> <id>
3480

> <casrn>
111-81-9

> <smiles (First)>


> <Molecular weight>
198.3018798828125

> <name>
methyl undec-10-enoate

> <Outcome>
1

> <Molecule (RDKit Mol) (InChI Code)>
InChI=1S/C12H22O2/c1-3-4-5-6-7-8-9-10-11-12(13)14-2/h3H,1,4-11H2,2H3

> <reference>
ECHA

> <molecule_form>
A

$$$$

  Mrv1812 01171911372D          

 29 28  0  0  0  0            999 V2000
    5.8559    3.3949    0.0000 C   0  0  0  0  0  0  0  0  0  0  0  0
    5.8559    2.5699    0.0000 N   0  0  0  0  0  0  0  0  0  0  0  0
    5.1414    2.1574    0.0000 C   0  0  0  0  0  0  0  0  0  0  0  0
    4.4270    2.5699    0.0000 C   0  0  0  0  0  0  0  0  0  0  0  0
    3.7125    2.1574    0.0000 C   0  0  0  0  0  0  0  0  0  0  0  0
    2.9980    2.5699    0.0000 N   0  0  0  0  0  0  0  0  0  0  0  0
    6.5704    2.1574    0.0000 C   0  0  0  0  0  0  0  0  0  0  0  0
    7.2849    2.5699    0.0000 C   0  0  0  0  0  0  0  0  0  0  0  0
    7.9993    2.1574    0.0000 C   0  0  0  0  0  0  0  0  0  0  0  0
    8.7138    2.5699    0.0000 N   0  0  0  0  0  0  0  0  0  0  0  0
    6.6809    3.3949    0.0000 H   0  0  0  0  0  0  0  0  0  0  0  0
    5.8559    4.2199    0.0000 H   0  0  0  0  0  0  0  0  0  0  0  0
    5.0309    3.3949    0.0000 H   0  0  0  0  0  0  0  0  0  0  0  0
    4.7712    1.4202    0.0000 H   0  0  0  0  0  0  0  0  0  0  0  0
    5.5117    1.4202    0.0000 H   0  0  0  0  0  0  0  0  0  0  0  0
    4.7972    3.3072    0.0000 H   0  0  0  0  0  0  0  0  0  0  0  0
    4.0567    3.3072    0.0000 H   0  0  0  0  0  0  0  0  0  0  0  0
    3.3422    1.4202    0.0000 H   0  0  0  0  0  0  0  0  0  0  0  0
    4.0828    1.4202    0.0000 H   0  0  0  0  0  0  0  0  0  0  0  0
    2.9980    3.3949    0.0000 H   0  0  0  0  0  0  0  0  0  0  0  0
    2.2836    2.1574    0.0000 H   0  0  0  0  0  0  0  0  0  0  0  0
    6.2001    1.4202    0.0000 H   0  0  0  0  0  0  0  0  0  0  0  0
    6.9406    1.4202    0.0000 H   0  0  0  0  0  0  0  0  0  0  0  0
    7.6551    3.3072    0.0000 H   0  0  0  0  0  0  0  0  0  0  0  0
    6.9146    3.3072    0.0000 H   0  0  0  0  0  0  0  0  0  0  0  0
    7.6291    1.4202    0.0000 H   0  0  0  0  0  0  0  0  0  0  0  0
    8.3696    1.4202    0.0000 H   0  0  0  0  0  0  0  0  0  0  0  0
    9.4283    2.1574    0.0000 H   0  0  0  0  0  0  0  0  0  0  0  0
    8.7138    3.3949    0.0000 H   0  0  0  0  0  0  0  0  0  0  0  0
  1  2  1  0  0  0  0
  2  3  1  0  0  0  0
  3  4  1  0  0  0  0
  4  5  1  0  0  0  0
  5  6  1  0  0  0  0
  2  7  1  0  0  0  0
  7  8  1  0  0  0  0
  8  9  1  0  0  0  0
  9 10  1  0  0  0  0
  1 11  1  0  0  0  0
  1 12  1  0  0  0  0
  1 13  1  0  0  0  0
  3 14  1  0  0  0  0
  3 15  1  0  0  0  0
  4 16  1  0  0  0  0
  4 17  1  0  0  0  0
  5 18  1  0  0  0  0
  5 19  1  0  0  0  0
  6 20  1  0  0  0  0
  6 21  1  0  0  0  0
  7 22  1  0  0  0  0
  7 23  1  0  0  0  0
  8 24  1  0  0  0  0
  8 25  1  0  0  0  0
  9 26  1  0  0  0  0
  9 27  1  0  0  0  0
 10 28  1  0  0  0  0
 10 29  1  0  0  0  0
M  END
> <id>
2654

> <casrn>
105-83-9

> <smiles (First)>


> <Molecular weight>
145.24586486816406

> <name>
bis(3-aminopropyl)(methyl)amine

> <Outcome>
1

> <Molecule (RDKit Mol) (InChI Code)>
InChI=1S/C7H19N3/c1-10(6-2-4-8)7-3-5-9/h2-9H2,1H3

> <reference>
ECHA

> <molecule_form>
A

$$$$

  Mrv1812 01171911372D          

 41 42  0  0  0  0            999 V2000
    0.7511    0.4095    0.0000 O   0  0  0  0  0  0  0  0  0  0  0  0
    1.4656   -0.0030    0.0000 C   0  0  0  0  0  0  0  0  0  0  0  0
    2.1801   -0.4155    0.0000 N   0  0  0  0  0  0  0  0  0  0  0  0
    2.1801   -1.2405    0.0000 C   0  0  0  0  0  0  0  0  0  0  0  0
    2.8945   -1.6530    0.0000 C   0  0  0  0  0  0  0  0  0  0  0  0
    2.8945   -2.4780    0.0000 C   0  0  0  0  0  0  0  0  0  0  0  0
    2.1801   -2.8905    0.0000 C   0  0  0  0  0  0  0  0  0  0  0  0
    2.1801   -3.7155    0.0000 C   0  0  0  0  0  0  0  0  0  0  0  0
    1.4656   -4.1280    0.0000 C   0  0  0  0  0  0  0  0  0  0  0  0
    1.4656   -4.9530    0.0000 C   0  0  0  0  0  0  0  0  0  0  0  0
    0.7511   -5.3655    0.0000 C   0  0  0  0  0  0  0  0  0  0  0  0
    0.0366   -4.9530    0.0000 C   0  0  0  0  0  0  0  0  0  0  0  0
   -0.6778   -5.3655    0.0000 N   0  0  0  0  0  0  0  0  0  0  0  0
   -0.6778   -6.1905    0.0000 C   0  0  0  0  0  0  0  0  0  0  0  0
   -0.6778   -7.0155    0.0000 O   0  0  0  0  0  0  0  0  0  0  0  0
    0.0366   -4.1280    0.0000 C   0  0  0  0  0  0  0  0  0  0  0  0
    0.7511   -3.7155    0.0000 C   0  0  0  0  0  0  0  0  0  0  0  0
    1.4656   -2.4780    0.0000 C   0  0  0  0  0  0  0  0  0  0  0  0
    1.4656   -1.6530    0.0000 C   0  0  0  0  0  0  0  0  0  0  0  0
    1.4656   -0.8280    0.0000 H   0  0  0  0  0  0  0  0  0  0  0  0
    3.7181   -1.6050    0.0000 H   0  0  0  0  0  0  0  0  0  0  0  0
    3.3479   -0.9637    0.0000 H   0  0  0  0  0  0  0  0  0  0  0  0
    3.3479   -3.1673    0.0000 H   0  0  0  0  0  0  0  0  0  0  0  0
    3.7181   -2.5260    0.0000 H   0  0  0  0  0  0  0  0  0  0  0  0
    1.4656   -3.3030    0.0000 H   0  0  0  0  0  0  0  0  0  0  0  0
    2.6334   -4.4048    0.0000 H   0  0  0  0  0  0  0  0  0  0  0  0
    3.0037   -3.7635    0.0000 H   0  0  0  0  0  0  0  0  0  0  0  0
    2.1801   -4.5405    0.0000 H   0  0  0  0  0  0  0  0  0  0  0  0
    1.6088   -5.7655    0.0000 H   0  0  0  0  0  0  0  0  0  0  0  0
    2.0976   -5.4833    0.0000 H   0  0  0  0  0  0  0  0  0  0  0  0
    0.1375   -5.9169    0.0000 H   0  0  0  0  0  0  0  0  0  0  0  0
    0.6514   -6.1845    0.0000 H   0  0  0  0  0  0  0  0  0  0  0  0
   -0.6778   -4.5405    0.0000 H   0  0  0  0  0  0  0  0  0  0  0  0
   -0.1066   -3.3155    0.0000 H   0  0  0  0  0  0  0  0  0  0  0  0
   -0.5953   -3.5977    0.0000 H   0  0  0  0  0  0  0  0  0  0  0  0
    0.7151   -2.8913    0.0000 H   0  0  0  0  0  0  0  0  0  0  0  0
    0.7511   -4.5405    0.0000 H   0  0  0  0  0  0  0  0  0  0  0  0
    0.7553   -2.0583    0.0000 H   0  0  0  0  0  0  0  0  0  0  0  0
    2.1801   -2.0655    0.0000 H   0  0  0  0  0  0  0  0  0  0  0  0
    0.9364   -1.0201    0.0000 H   0  0  0  0  0  0  0  0  0  0  0  0
    0.6536   -1.5070    0.0000 H   0  0  0  0  0  0  0  0  0  0  0  0
  1  2  2  0  0  0  0
  2  3  2  0  0  0  0
  3  4  1  0  0  0  0
  4  5  1  0  0  0  0
  5  6  1  0  0  0  0
  6  7  1  0  0  0  0
  7  8  1  0  0  0  0
  8  9  1  0  0  0  0
  9 10  1  0  0  0  0
 10 11  1  0  0  0  0
 11 12  1  0  0  0  0
 12 13  1  0  0  0  0
 13 14  2  0  0  0  0
 14 15  2  0  0  0  0
 12 16  1  0  0  0  0
 16 17  1  0  0  0  0
  9 17  1  0  0  0  0
  7 18  1  0  0  0  0
 18 19  1  0  0  0  0
  4 19  1  0  0  0  0
  4 20  1  0  0  0  0
  5 21  1  0  0  0  0
  5 22  1  0  0  0  0
  6 23  1  0  0  0  0
  6 24  1  0  0  0  0
  7 25  1  0  0  0  0
  8 26  1  0  0  0  0
  8 27  1  0  0  0  0
  9 28  1  0  0  0  0
 10 29  1  0  0  0  0
 10 30  1  0  0  0  0
 11 31  1  0  0  0  0
 11 32  1  0  0  0  0
 12 33  1  0  0  0  0
 16 34  1  0  0  0  0
 16 35  1  0  0  0  0
 17 36  1  0  0  0  0
 17 37  1  0  0  0  0
 18 38  1  0  0  0  0
 18 39  1  0  0  0  0
 19 40  1  0  0  0  0
 19 41  1  0  0  0  0
M  END
> <id>
1175; 1176; 1177

> <casrn>
5124-30-1

> <smiles (First)>


> <Molecular weight>
262.3473815917969

> <name>
1-isocyanato-4-[(4-isocyanatocyclohexyl)methyl]cyclohexane

> <Outcome>
1

> <Molecule (RDKit Mol) (InChI Code)>
InChI=1S/C15H22N2O2/c18-10-16-14-5-1-12(2-6-14)9-13-3-7-15(8-4-13)17-11-19/h12-15H,1-9H2

> <reference>
ECHA

> <molecule_form>
A

$$$$

  Mrv1812 01171911372D          

 26 26  0  0  0  0            999 V2000
    0.7774    2.1817    0.0000 C   0  0  0  0  0  0  0  0  0  0  0  0
    0.7774    1.3567    0.0000 C   0  0  0  0  0  0  0  0  0  0  0  0
    1.4919    0.9442    0.0000 C   0  0  0  0  0  0  0  0  0  0  0  0
    1.4919    0.1192    0.0000 C   0  0  0  0  0  0  0  0  0  0  0  0
    0.7774   -0.2933    0.0000 C   0  0  0  0  0  0  0  0  0  0  0  0
    0.0629    0.1192    0.0000 C   0  0  0  0  0  0  0  0  0  0  0  0
   -0.6515   -0.2933    0.0000 C   0  0  0  0  0  0  0  0  0  0  0  0
    0.0629    0.9442    0.0000 C   0  0  0  0  0  0  0  0  0  0  0  0
   -0.6515    1.3567    0.0000 N   0  0  0  0  0  0  0  0  0  0  0  0
    1.6024    2.1817    0.0000 H   0  0  0  0  0  0  0  0  0  0  0  0
    0.7774    3.0067    0.0000 H   0  0  0  0  0  0  0  0  0  0  0  0
   -0.0476    2.1817    0.0000 H   0  0  0  0  0  0  0  0  0  0  0  0
    0.0629    1.7692    0.0000 H   0  0  0  0  0  0  0  0  0  0  0  0
    2.3155    0.9922    0.0000 H   0  0  0  0  0  0  0  0  0  0  0  0
    1.9452    1.6335    0.0000 H   0  0  0  0  0  0  0  0  0  0  0  0
    1.9452   -0.5700    0.0000 H   0  0  0  0  0  0  0  0  0  0  0  0
    2.3155    0.0713    0.0000 H   0  0  0  0  0  0  0  0  0  0  0  0
    0.4071   -1.0305    0.0000 H   0  0  0  0  0  0  0  0  0  0  0  0
    1.1477   -1.0305    0.0000 H   0  0  0  0  0  0  0  0  0  0  0  0
   -0.6515    0.5317    0.0000 H   0  0  0  0  0  0  0  0  0  0  0  0
   -1.4484   -0.0797    0.0000 H   0  0  0  0  0  0  0  0  0  0  0  0
   -1.0640   -1.0077    0.0000 H   0  0  0  0  0  0  0  0  0  0  0  0
   -0.0682   -0.8766    0.0000 H   0  0  0  0  0  0  0  0  0  0  0  0
    0.7774    0.5317    0.0000 H   0  0  0  0  0  0  0  0  0  0  0  0
   -1.1049    2.0460    0.0000 H   0  0  0  0  0  0  0  0  0  0  0  0
   -1.4752    1.4047    0.0000 H   0  0  0  0  0  0  0  0  0  0  0  0
  1  2  1  0  0  0  0
  2  3  1  0  0  0  0
  3  4  1  0  0  0  0
  4  5  1  0  0  0  0
  5  6  1  0  0  0  0
  6  7  1  0  0  0  0
  6  8  1  0  0  0  0
  2  8  1  0  0  0  0
  8  9  1  0  0  0  0
  1 10  1  0  0  0  0
  1 11  1  0  0  0  0
  1 12  1  0  0  0  0
  2 13  1  0  0  0  0
  3 14  1  0  0  0  0
  3 15  1  0  0  0  0
  4 16  1  0  0  0  0
  4 17  1  0  0  0  0
  5 18  1  0  0  0  0
  5 19  1  0  0  0  0
  6 20  1  0  0  0  0
  7 21  1  0  0  0  0
  7 22  1  0  0  0  0
  7 23  1  0  0  0  0
  8 24  1  0  0  0  0
  9 25  1  0  0  0  0
  9 26  1  0  0  0  0
M  END
> <id>
1312

> <casrn>
6850-63-1

> <smiles (First)>


> <Molecular weight>
127.22727966308594

> <name>
2,6-dimethylcyclohexanamine

> <Outcome>
1

> <Molecule (RDKit Mol) (InChI Code)>
InChI=1S/C8H17N/c1-6-4-3-5-7(2)8(6)9/h6-8H,3-5,9H2,1-2H3

> <reference>
ECHA

> <molecule_form>
V

$$$$

  Mrv1812 01171911372D          

 24 23  0  0  0  0            999 V2000
    1.0461    1.4303    0.0000 C   0  0  0  0  0  0  0  0  0  0  0  0
    1.7606    1.8428    0.0000 C   0  0  0  0  0  0  0  0  0  0  0  0
    2.4750    1.4303    0.0000 C   0  0  0  0  0  0  0  0  0  0  0  0
    3.1895    1.8428    0.0000 C   0  0  0  0  0  0  0  0  0  0  0  0
    3.9040    1.4303    0.0000 C   0  0  0  0  0  0  0  0  0  0  0  0
    4.6184    1.8428    0.0000 C   0  0  0  0  0  0  0  0  0  0  0  0
    5.3329    1.4303    0.0000 C   0  0  0  0  0  0  0  0  0  0  0  0
    6.0474    1.8428    0.0000 C   0  0  0  0  0  0  0  0  0  0  0  0
    0.3316    1.8428    0.0000 H   0  0  0  0  0  0  0  0  0  0  0  0
    1.0461    0.6053    0.0000 H   0  0  0  0  0  0  0  0  0  0  0  0
    1.7606    2.6678    0.0000 H   0  0  0  0  0  0  0  0  0  0  0  0
    2.1048    0.6931    0.0000 H   0  0  0  0  0  0  0  0  0  0  0  0
    2.8453    0.6931    0.0000 H   0  0  0  0  0  0  0  0  0  0  0  0
    3.5598    2.5801    0.0000 H   0  0  0  0  0  0  0  0  0  0  0  0
    2.8192    2.5801    0.0000 H   0  0  0  0  0  0  0  0  0  0  0  0
    3.5337    0.6931    0.0000 H   0  0  0  0  0  0  0  0  0  0  0  0
    4.2742    0.6931    0.0000 H   0  0  0  0  0  0  0  0  0  0  0  0
    4.9887    2.5801    0.0000 H   0  0  0  0  0  0  0  0  0  0  0  0
    4.2482    2.5801    0.0000 H   0  0  0  0  0  0  0  0  0  0  0  0
    4.9626    0.6931    0.0000 H   0  0  0  0  0  0  0  0  0  0  0  0
    5.7032    0.6931    0.0000 H   0  0  0  0  0  0  0  0  0  0  0  0
    6.4599    1.1284    0.0000 H   0  0  0  0  0  0  0  0  0  0  0  0
    6.7618    2.2553    0.0000 H   0  0  0  0  0  0  0  0  0  0  0  0
    5.6349    2.5573    0.0000 H   0  0  0  0  0  0  0  0  0  0  0  0
  1  2  2  0  0  0  0
  2  3  1  0  0  0  0
  3  4  1  0  0  0  0
  4  5  1  0  0  0  0
  5  6  1  0  0  0  0
  6  7  1  0  0  0  0
  7  8  1  0  0  0  0
  1  9  1  0  0  0  0
  1 10  1  0  0  0  0
  2 11  1  0  0  0  0
  3 12  1  0  0  0  0
  3 13  1  0  0  0  0
  4 14  1  0  0  0  0
  4 15  1  0  0  0  0
  5 16  1  0  0  0  0
  5 17  1  0  0  0  0
  6 18  1  0  0  0  0
  6 19  1  0  0  0  0
  7 20  1  0  0  0  0
  7 21  1  0  0  0  0
  8 22  1  0  0  0  0
  8 23  1  0  0  0  0
  8 24  1  0  0  0  0
M  END
> <id>
3557; 3562; 3558; 3546; 3548; 3547; 3540; 3561; 3563; 3553; 3541; 3552; 3542

> <casrn>
111-66-0

> <smiles (First)>


> <Molecular weight>
112.212646484375

> <name>
oct-1-ene

> <Outcome>
0

> <Molecule (RDKit Mol) (InChI Code)>
InChI=1S/C8H16/c1-3-5-7-8-6-4-2/h3H,1,4-8H2,2H3

> <reference>
ECHA

> <molecule_form>
V

$$$$

  Mrv1812 01171911372D          

 15 14  0  0  0  0            999 V2000
   -0.1914    0.7145    0.0000 C   0  0  0  0  0  0  0  0  0  0  0  0
    0.5230    1.1270    0.0000 O   0  0  0  0  0  0  0  0  0  0  0  0
    1.2375    0.7145    0.0000 C   0  0  0  0  0  0  0  0  0  0  0  0
    1.2375   -0.1105    0.0000 O   0  0  0  0  0  0  0  0  0  0  0  0
    1.9520    1.1270    0.0000 C   0  0  0  0  0  0  0  0  0  0  0  0
    2.6664    0.7145    0.0000 C   0  0  0  0  0  0  0  0  0  0  0  0
    3.3809    1.1270    0.0000 S   0  0  0  0  0  0  0  0  0  0  0  0
   -0.6039    1.4290    0.0000 H   0  0  0  0  0  0  0  0  0  0  0  0
   -0.9059    0.3020    0.0000 H   0  0  0  0  0  0  0  0  0  0  0  0
    0.2211    0.0000    0.0000 H   0  0  0  0  0  0  0  0  0  0  0  0
    2.3222    1.8642    0.0000 H   0  0  0  0  0  0  0  0  0  0  0  0
    1.5817    1.8642    0.0000 H   0  0  0  0  0  0  0  0  0  0  0  0
    2.2962   -0.0227    0.0000 H   0  0  0  0  0  0  0  0  0  0  0  0
    3.0367   -0.0227    0.0000 H   0  0  0  0  0  0  0  0  0  0  0  0
    4.0954    0.7145    0.0000 H   0  0  0  0  0  0  0  0  0  0  0  0
  1  2  1  0  0  0  0
  2  3  1  0  0  0  0
  3  4  2  0  0  0  0
  3  5  1  0  0  0  0
  5  6  1  0  0  0  0
  6  7  1  0  0  0  0
  1  8  1  0  0  0  0
  1  9  1  0  0  0  0
  1 10  1  0  0  0  0
  5 11  1  0  0  0  0
  5 12  1  0  0  0  0
  6 13  1  0  0  0  0
  6 14  1  0  0  0  0
  7 15  1  0  0  0  0
M  END
> <id>
3459

> <casrn>
2935-90-2

> <smiles (First)>


> <Molecular weight>
120.17012023925781

> <name>
methyl 3-sulfanylpropanoate

> <Outcome>
1

> <Molecule (RDKit Mol) (InChI Code)>
InChI=1S/C4H8O2S/c1-6-4(5)2-3-7/h7H,2-3H2,1H3

> <reference>
ECHA

> <molecule_form>
V

$$$$

  Mrv1812 01171911372D          

 24 25  0  0  0  0            999 V2000
    0.8131    0.7947    0.0000 O   0  0  0  0  0  0  0  0  0  0  0  0
    1.0681    0.0101    0.0000 C   0  0  0  0  0  0  0  0  0  0  0  0
    1.8527   -0.2448    0.0000 C   0  0  0  0  0  0  0  0  0  0  0  0
    2.5672    0.1677    0.0000 C   0  0  0  0  0  0  0  0  0  0  0  0
    3.2816   -0.2448    0.0000 C   0  0  0  0  0  0  0  0  0  0  0  0
    3.2816   -1.0698    0.0000 C   0  0  0  0  0  0  0  0  0  0  0  0
    2.5672   -1.4823    0.0000 C   0  0  0  0  0  0  0  0  0  0  0  0
    1.8527   -1.0698    0.0000 C   0  0  0  0  0  0  0  0  0  0  0  0
    1.0681   -1.3248    0.0000 C   0  0  0  0  0  0  0  0  0  0  0  0
    0.8131   -2.1094    0.0000 O   0  0  0  0  0  0  0  0  0  0  0  0
    0.5832   -0.6573    0.0000 N   0  0  0  0  0  0  0  0  0  0  0  0
   -0.2418   -0.6573    0.0000 S   0  0  0  0  0  0  0  0  0  0  0  0
   -0.6543   -1.3718    0.0000 C   0  0  0  0  0  0  0  0  0  0  0  0
   -1.0668   -2.0863    0.0000 Cl  0  0  0  0  0  0  0  0  0  0  0  0
   -1.3688   -0.9593    0.0000 Cl  0  0  0  0  0  0  0  0  0  0  0  0
    0.0601   -1.7843    0.0000 Cl  0  0  0  0  0  0  0  0  0  0  0  0
    1.7665    0.5757    0.0000 H   0  0  0  0  0  0  0  0  0  0  0  0
    3.1882    0.7107    0.0000 H   0  0  0  0  0  0  0  0  0  0  0  0
    2.6844    0.9843    0.0000 H   0  0  0  0  0  0  0  0  0  0  0  0
    4.1057   -0.2046    0.0000 H   0  0  0  0  0  0  0  0  0  0  0  0
    3.9961   -1.4823    0.0000 H   0  0  0  0  0  0  0  0  0  0  0  0
    2.1969   -2.2196    0.0000 H   0  0  0  0  0  0  0  0  0  0  0  0
    2.9374   -2.2196    0.0000 H   0  0  0  0  0  0  0  0  0  0  0  0
    1.7665   -1.8903    0.0000 H   0  0  0  0  0  0  0  0  0  0  0  0
  1  2  2  0  0  0  0
  2  3  1  0  0  0  0
  3  4  1  0  0  0  0
  4  5  1  0  0  0  0
  5  6  2  0  0  0  0
  6  7  1  0  0  0  0
  7  8  1  0  0  0  0
  3  8  1  0  0  0  0
  8  9  1  0  0  0  0
  9 10  2  0  0  0  0
  9 11  1  0  0  0  0
  2 11  1  0  0  0  0
 11 12  1  0  0  0  0
 12 13  1  0  0  0  0
 13 14  1  0  0  0  0
 13 15  1  0  0  0  0
 13 16  1  0  0  0  0
  3 17  1  0  0  0  0
  4 18  1  0  0  0  0
  4 19  1  0  0  0  0
  5 20  1  0  0  0  0
  6 21  1  0  0  0  0
  7 22  1  0  0  0  0
  7 23  1  0  0  0  0
  8 24  1  0  0  0  0
M  END
> <id>
1400

> <casrn>
133-06-2

> <smiles (First)>


> <Molecular weight>
300.5893249511719

> <name>
2-[(trichloromethyl)sulfanyl]-2,3,3a,4,7,7a-hexahydro-1H-isoindole-1,3-dione

> <Outcome>
1

> <Molecule (RDKit Mol) (InChI Code)>
InChI=1S/C9H8Cl3NO2S/c10-9(11,12)16-13-7(14)5-3-1-2-4-6(5)8(13)15/h1-2,5-6H,3-4H2

> <reference>
ECHA

> <molecule_form>
A

$$$$

  Mrv1812 01171911372D          

  6  5  0  0  0  0            999 V2000
    2.0625   -0.7145    0.0000 O   0  0  0  0  0  0  0  0  0  0  0  0
    1.2375   -0.7145    0.0000 C   0  0  0  0  0  0  0  0  0  0  0  0
    0.8250   -0.0000    0.0000 C   0  0  0  0  0  0  0  0  0  0  0  0
    0.0000   -0.0000    0.0000 O   0  0  0  0  0  0  0  0  0  0  0  0
    0.8250   -1.4290    0.0000 H   0  0  0  0  0  0  0  0  0  0  0  0
    1.2375    0.7145    0.0000 H   0  0  0  0  0  0  0  0  0  0  0  0
  1  2  2  0  0  0  0
  2  3  1  0  0  0  0
  3  4  2  0  0  0  0
  2  5  1  0  0  0  0
  3  6  1  0  0  0  0
M  END
> <id>
3640; 3638; 3639

> <casrn>
107-22-2

> <smiles (First)>


> <Molecular weight>
58.03607940673828

> <name>
oxaldehyde

> <Outcome>
1

> <Molecule (RDKit Mol) (InChI Code)>
InChI=1S/C2H2O2/c3-1-2-4/h1-2H

> <reference>
ECHA

> <molecule_form>
A

$$$$

  Mrv1812 01171911372D          

  9  8  0  0  0  0            999 V2000
    2.1228   -1.5544    0.0000 C   0  0  0  0  0  0  0  0  0  0  0  0
    1.7103   -0.8399    0.0000 C   0  0  0  0  0  0  0  0  0  0  0  0
    0.8853   -0.8399    0.0000 O   0  0  0  0  0  0  0  0  0  0  0  0
    1.4083   -1.9669    0.0000 H   0  0  0  0  0  0  0  0  0  0  0  0
    2.5353   -2.2689    0.0000 H   0  0  0  0  0  0  0  0  0  0  0  0
    2.8373   -1.1419    0.0000 H   0  0  0  0  0  0  0  0  0  0  0  0
    2.3996   -0.3866    0.0000 H   0  0  0  0  0  0  0  0  0  0  0  0
    1.7583   -0.0163    0.0000 H   0  0  0  0  0  0  0  0  0  0  0  0
    0.4728   -0.1254    0.0000 H   0  0  0  0  0  0  0  0  0  0  0  0
  1  2  1  0  0  0  0
  2  3  1  0  0  0  0
  1  4  1  0  0  0  0
  1  5  1  0  0  0  0
  1  6  1  0  0  0  0
  2  7  1  0  0  0  0
  2  8  1  0  0  0  0
  3  9  1  0  0  0  0
M  END
> <id>
3128

> <casrn>
64-17-5

> <smiles (First)>


> <Molecular weight>
46.06843948364258

> <name>
ethanol

> <Outcome>
0

> <Molecule (RDKit Mol) (InChI Code)>
InChI=1S/C2H6O/c1-2-3/h3H,2H2,1H3

> <reference>
ECHA

> <molecule_form>
V

$$$$

  Mrv1812 01171911372D          

 10  9  0  0  0  0            999 V2000
    0.8250    1.4289    0.0000 C   0  0  0  0  0  0  0  0  0  0  0  0
    1.2375    0.7145    0.0000 C   0  0  0  0  0  0  0  0  0  0  0  0
    2.0625    0.7145    0.0000 Cl  0  0  0  0  0  0  0  0  0  0  0  0
    0.8250   -0.0000    0.0000 C   0  0  0  0  0  0  0  0  0  0  0  0
    1.2375   -0.7145    0.0000 C   0  0  0  0  0  0  0  0  0  0  0  0
   -0.0000   -0.0000    0.0000 Cl  0  0  0  0  0  0  0  0  0  0  0  0
    1.2375    2.1434    0.0000 H   0  0  0  0  0  0  0  0  0  0  0  0
   -0.0000    1.4289    0.0000 H   0  0  0  0  0  0  0  0  0  0  0  0
    0.8250   -1.4290    0.0000 H   0  0  0  0  0  0  0  0  0  0  0  0
    2.0625   -0.7145    0.0000 H   0  0  0  0  0  0  0  0  0  0  0  0
  1  2  2  0  0  0  0
  2  3  1  0  0  0  0
  2  4  1  0  0  0  0
  4  5  2  0  0  0  0
  4  6  1  0  0  0  0
  1  7  1  0  0  0  0
  1  8  1  0  0  0  0
  5  9  1  0  0  0  0
  5 10  1  0  0  0  0
M  END
> <id>
1283

> <casrn>
1653-19-6

> <smiles (First)>


> <Molecular weight>
122.98056030273438

> <name>
2,3-dichlorobuta-1,3-diene

> <Outcome>
1

> <Molecule (RDKit Mol) (InChI Code)>
InChI=1S/C4H4Cl2/c1-3(5)4(2)6/h1-2H2

> <reference>
ECHA

> <molecule_form>
G

$$$$

  Mrv1812 01171911372D          

 18 17  0  0  0  0            999 V2000
   -0.1914    0.7165    0.0000 C   0  0  0  0  0  0  0  0  0  0  0  0
    0.5230    1.1290    0.0000 C   0  0  0  0  0  0  0  0  0  0  0  0
    1.2375    0.7165    0.0000 C   0  0  0  0  0  0  0  0  0  0  0  0
    1.9520    1.1290    0.0000 C   0  0  0  0  0  0  0  0  0  0  0  0
    2.6664    0.7165    0.0000 C   0  0  0  0  0  0  0  0  0  0  0  0
    3.3809    1.1290    0.0000 C   0  0  0  0  0  0  0  0  0  0  0  0
   -0.9059    1.1290    0.0000 H   0  0  0  0  0  0  0  0  0  0  0  0
   -0.1914   -0.1085    0.0000 H   0  0  0  0  0  0  0  0  0  0  0  0
    0.5230    1.9540    0.0000 H   0  0  0  0  0  0  0  0  0  0  0  0
    0.8672   -0.0208    0.0000 H   0  0  0  0  0  0  0  0  0  0  0  0
    1.6078   -0.0208    0.0000 H   0  0  0  0  0  0  0  0  0  0  0  0
    2.3222    1.8662    0.0000 H   0  0  0  0  0  0  0  0  0  0  0  0
    1.5817    1.8662    0.0000 H   0  0  0  0  0  0  0  0  0  0  0  0
    2.2962   -0.0208    0.0000 H   0  0  0  0  0  0  0  0  0  0  0  0
    3.0367   -0.0208    0.0000 H   0  0  0  0  0  0  0  0  0  0  0  0
    3.7934    0.4145    0.0000 H   0  0  0  0  0  0  0  0  0  0  0  0
    4.0954    1.5415    0.0000 H   0  0  0  0  0  0  0  0  0  0  0  0
    2.9684    1.8434    0.0000 H   0  0  0  0  0  0  0  0  0  0  0  0
  1  2  2  0  0  0  0
  2  3  1  0  0  0  0
  3  4  1  0  0  0  0
  4  5  1  0  0  0  0
  5  6  1  0  0  0  0
  1  7  1  0  0  0  0
  1  8  1  0  0  0  0
  2  9  1  0  0  0  0
  3 10  1  0  0  0  0
  3 11  1  0  0  0  0
  4 12  1  0  0  0  0
  4 13  1  0  0  0  0
  5 14  1  0  0  0  0
  5 15  1  0  0  0  0
  6 16  1  0  0  0  0
  6 17  1  0  0  0  0
  6 18  1  0  0  0  0
M  END
> <id>
3244; 3245

> <casrn>
592-41-6

> <smiles (First)>


> <Molecular weight>
84.15948486328125

> <name>
hex-1-ene

> <Outcome>
0

> <Molecule (RDKit Mol) (InChI Code)>
InChI=1S/C6H12/c1-3-5-6-4-2/h3H,1,4-6H2,2H3

> <reference>
ECHA

> <molecule_form>
V

$$$$

  Mrv1812 01171911372D          

  7  6  0  0  0  0            999 V2000
    1.6474   -1.4333    0.0000 C   0  0  0  0  0  0  0  0  0  0  0  0
    1.2349   -0.7188    0.0000 C   0  0  0  0  0  0  0  0  0  0  0  0
    0.8224   -0.0044    0.0000 C   0  0  0  0  0  0  0  0  0  0  0  0
   -0.0026   -0.0044    0.0000 Cl  0  0  0  0  0  0  0  0  0  0  0  0
    2.0599   -2.1478    0.0000 H   0  0  0  0  0  0  0  0  0  0  0  0
    1.5117    0.4490    0.0000 H   0  0  0  0  0  0  0  0  0  0  0  0
    0.8704    0.8192    0.0000 H   0  0  0  0  0  0  0  0  0  0  0  0
  1  2  3  0  0  0  0
  2  3  1  0  0  0  0
  3  4  1  0  0  0  0
  1  5  1  0  0  0  0
  3  6  1  0  0  0  0
  3  7  1  0  0  0  0
M  END
> <id>
1773

> <casrn>
624-65-7

> <smiles (First)>


> <Molecular weight>
74.50891876220703

> <name>
3-chloroprop-1-yne

> <Outcome>
1

> <Molecule (RDKit Mol) (InChI Code)>
InChI=1S/C3H3Cl/c1-2-3-4/h1H,3H2

> <reference>
ECHA

> <molecule_form>
V

$$$$

  Mrv1812 01171911372D          

 24 24  0  0  0  0            999 V2000
    1.8169    1.7079    0.0000 C   0  0  0  0  0  0  0  0  0  0  0  0
    1.1025    1.2954    0.0000 C   0  0  0  0  0  0  0  0  0  0  0  0
    1.1025    0.4704    0.0000 C   0  0  0  0  0  0  0  0  0  0  0  0
    0.3880    0.0579    0.0000 C   0  0  0  0  0  0  0  0  0  0  0  0
    0.9183   -0.5741    0.0000 C   0  0  0  0  0  0  0  0  0  0  0  0
   -0.1423   -0.5741    0.0000 C   0  0  0  0  0  0  0  0  0  0  0  0
   -0.3265    0.4704    0.0000 C   0  0  0  0  0  0  0  0  0  0  0  0
   -0.3265    1.2954    0.0000 C   0  0  0  0  0  0  0  0  0  0  0  0
   -1.0409    1.7079    0.0000 O   0  0  0  0  0  0  0  0  0  0  0  0
    0.3880    1.7079    0.0000 C   0  0  0  0  0  0  0  0  0  0  0  0
    2.2294    0.9935    0.0000 H   0  0  0  0  0  0  0  0  0  0  0  0
    2.5314    2.1204    0.0000 H   0  0  0  0  0  0  0  0  0  0  0  0
    1.4044    2.4224    0.0000 H   0  0  0  0  0  0  0  0  0  0  0  0
    1.8169    0.0579    0.0000 H   0  0  0  0  0  0  0  0  0  0  0  0
    0.2863   -1.1044    0.0000 H   0  0  0  0  0  0  0  0  0  0  0  0
    1.4486   -1.2060    0.0000 H   0  0  0  0  0  0  0  0  0  0  0  0
    1.5503   -0.0438    0.0000 H   0  0  0  0  0  0  0  0  0  0  0  0
   -0.4875    0.1752    0.0000 H   0  0  0  0  0  0  0  0  0  0  0  0
   -0.9673   -0.5665    0.0000 H   0  0  0  0  0  0  0  0  0  0  0  0
   -0.5012   -1.3169    0.0000 H   0  0  0  0  0  0  0  0  0  0  0  0
   -1.1259    0.6743    0.0000 H   0  0  0  0  0  0  0  0  0  0  0  0
    0.3880    0.8829    0.0000 H   0  0  0  0  0  0  0  0  0  0  0  0
    0.7583    2.4452    0.0000 H   0  0  0  0  0  0  0  0  0  0  0  0
    0.0177    2.4452    0.0000 H   0  0  0  0  0  0  0  0  0  0  0  0
  1  2  1  0  0  0  0
  2  3  2  0  0  0  0
  3  4  1  0  0  0  0
  4  5  1  0  0  0  0
  4  6  1  0  0  0  0
  4  7  1  0  0  0  0
  7  8  1  0  0  0  0
  8  9  2  0  0  0  0
  8 10  1  0  0  0  0
  2 10  1  0  0  0  0
  1 11  1  0  0  0  0
  1 12  1  0  0  0  0
  1 13  1  0  0  0  0
  3 14  1  0  0  0  0
  5 15  1  0  0  0  0
  5 16  1  0  0  0  0
  5 17  1  0  0  0  0
  6 18  1  0  0  0  0
  6 19  1  0  0  0  0
  6 20  1  0  0  0  0
  7 21  1  0  0  0  0
  7 22  1  0  0  0  0
 10 23  1  0  0  0  0
 10 24  1  0  0  0  0
M  END
> <id>
1729

> <casrn>
471-01-2

> <smiles (First)>


> <Molecular weight>
138.2068634033203

> <name>
3,5,5-trimethylcyclohex-3-en-1-one

> <Outcome>
1

> <Molecule (RDKit Mol) (InChI Code)>
InChI=1S/C9H14O/c1-7-4-8(10)6-9(2,3)5-7/h5H,4,6H2,1-3H3

> <reference>
ECHA

> <molecule_form>
V

$$$$

  Mrv1812 01171911372D          

 13 13  0  0  0  0            999 V2000
    1.2992    0.4450    0.0000 C   0  0  0  0  0  0  0  0  0  0  0  0
    1.0443   -0.3396    0.0000 C   0  0  0  0  0  0  0  0  0  0  0  0
    0.2193   -0.3396    0.0000 C   0  0  0  0  0  0  0  0  0  0  0  0
   -0.0356    0.4450    0.0000 C   0  0  0  0  0  0  0  0  0  0  0  0
    0.6318    0.9299    0.0000 C   0  0  0  0  0  0  0  0  0  0  0  0
    2.0839    0.6999    0.0000 H   0  0  0  0  0  0  0  0  0  0  0  0
    1.5292   -1.0071    0.0000 H   0  0  0  0  0  0  0  0  0  0  0  0
   -0.5222   -0.7013    0.0000 H   0  0  0  0  0  0  0  0  0  0  0  0
    0.1045   -1.1566    0.0000 H   0  0  0  0  0  0  0  0  0  0  0  0
   -0.6087    1.0384    0.0000 H   0  0  0  0  0  0  0  0  0  0  0  0
   -0.8481    0.3017    0.0000 H   0  0  0  0  0  0  0  0  0  0  0  0
    1.0191    1.6583    0.0000 H   0  0  0  0  0  0  0  0  0  0  0  0
    0.2445    1.6583    0.0000 H   0  0  0  0  0  0  0  0  0  0  0  0
  1  2  2  0  0  0  0
  2  3  1  0  0  0  0
  3  4  1  0  0  0  0
  4  5  1  0  0  0  0
  1  5  1  0  0  0  0
  1  6  1  0  0  0  0
  2  7  1  0  0  0  0
  3  8  1  0  0  0  0
  3  9  1  0  0  0  0
  4 10  1  0  0  0  0
  4 11  1  0  0  0  0
  5 12  1  0  0  0  0
  5 13  1  0  0  0  0
M  END
> <id>
2846

> <casrn>
142-29-0

> <smiles (First)>


> <Molecular weight>
68.11701965332031

> <name>
cyclopentene

> <Outcome>
0

> <Molecule (RDKit Mol) (InChI Code)>
InChI=1S/C5H8/c1-2-4-5-3-1/h1-2H,3-5H2

> <reference>
ECHA

> <molecule_form>
V

$$$$

  Mrv1812 01171911372D          

 28 27  0  0  0  0            999 V2000
    0.1105   -2.8875    0.0000 C   0  0  0  0  0  0  0  0  0  0  0  0
    0.1105   -2.0625    0.0000 C   0  0  0  0  0  0  0  0  0  0  0  0
    0.9355   -2.0625    0.0000 C   0  0  0  0  0  0  0  0  0  0  0  0
   -0.7145   -2.0625    0.0000 C   0  0  0  0  0  0  0  0  0  0  0  0
    0.1105   -1.2375    0.0000 O   0  0  0  0  0  0  0  0  0  0  0  0
    0.8250   -0.8250    0.0000 O   0  0  0  0  0  0  0  0  0  0  0  0
    0.8250   -0.0000    0.0000 C   0  0  0  0  0  0  0  0  0  0  0  0
    0.8250    0.8250    0.0000 C   0  0  0  0  0  0  0  0  0  0  0  0
    1.6500   -0.0000    0.0000 C   0  0  0  0  0  0  0  0  0  0  0  0
   -0.0000   -0.0000    0.0000 C   0  0  0  0  0  0  0  0  0  0  0  0
   -0.7145   -2.8875    0.0000 H   0  0  0  0  0  0  0  0  0  0  0  0
    0.1105   -3.7125    0.0000 H   0  0  0  0  0  0  0  0  0  0  0  0
    0.9355   -2.8875    0.0000 H   0  0  0  0  0  0  0  0  0  0  0  0
    1.6977   -2.3782    0.0000 H   0  0  0  0  0  0  0  0  0  0  0  0
    1.5189   -1.4791    0.0000 H   0  0  0  0  0  0  0  0  0  0  0  0
    0.6198   -1.3003    0.0000 H   0  0  0  0  0  0  0  0  0  0  0  0
   -0.3988   -1.3003    0.0000 H   0  0  0  0  0  0  0  0  0  0  0  0
   -1.2978   -1.4791    0.0000 H   0  0  0  0  0  0  0  0  0  0  0  0
   -1.4767   -2.3782    0.0000 H   0  0  0  0  0  0  0  0  0  0  0  0
    1.6500    0.8250    0.0000 H   0  0  0  0  0  0  0  0  0  0  0  0
    0.8250    1.6500    0.0000 H   0  0  0  0  0  0  0  0  0  0  0  0
   -0.0000    0.8250    0.0000 H   0  0  0  0  0  0  0  0  0  0  0  0
    1.3343   -0.7622    0.0000 H   0  0  0  0  0  0  0  0  0  0  0  0
    2.2333   -0.5834    0.0000 H   0  0  0  0  0  0  0  0  0  0  0  0
    2.4122    0.3157    0.0000 H   0  0  0  0  0  0  0  0  0  0  0  0
   -0.7622    0.3157    0.0000 H   0  0  0  0  0  0  0  0  0  0  0  0
   -0.5834   -0.5834    0.0000 H   0  0  0  0  0  0  0  0  0  0  0  0
    0.3157   -0.7622    0.0000 H   0  0  0  0  0  0  0  0  0  0  0  0
  1  2  1  0  0  0  0
  2  3  1  0  0  0  0
  2  4  1  0  0  0  0
  2  5  1  0  0  0  0
  5  6  1  0  0  0  0
  6  7  1  0  0  0  0
  7  8  1  0  0  0  0
  7  9  1  0  0  0  0
  7 10  1  0  0  0  0
  1 11  1  0  0  0  0
  1 12  1  0  0  0  0
  1 13  1  0  0  0  0
  3 14  1  0  0  0  0
  3 15  1  0  0  0  0
  3 16  1  0  0  0  0
  4 17  1  0  0  0  0
  4 18  1  0  0  0  0
  4 19  1  0  0  0  0
  8 20  1  0  0  0  0
  8 21  1  0  0  0  0
  8 22  1  0  0  0  0
  9 23  1  0  0  0  0
  9 24  1  0  0  0  0
  9 25  1  0  0  0  0
 10 26  1  0  0  0  0
 10 27  1  0  0  0  0
 10 28  1  0  0  0  0
M  END
> <id>
1358

> <casrn>
110-05-4

> <smiles (First)>


> <Molecular weight>
146.22732543945312

> <name>
2-(tert-butylperoxy)-2-methylpropane

> <Outcome>
0

> <Molecule (RDKit Mol) (InChI Code)>
InChI=1S/C8H18O2/c1-7(2,3)9-10-8(4,5)6/h1-6H3

> <reference>
ECHA

> <molecule_form>
V

$$$$

  Mrv1812 01171911372D          

 41 43  0  0  0  0            999 V2000
   -2.0461    0.3777    0.0000 O   0  0  0  0  0  0  0  0  0  0  0  0
   -1.3316   -0.0348    0.0000 C   0  0  0  0  0  0  0  0  0  0  0  0
   -0.6171   -0.4473    0.0000 N   0  0  0  0  0  0  0  0  0  0  0  0
   -0.6171   -1.2723    0.0000 C   0  0  0  0  0  0  0  0  0  0  0  0
    0.0973   -1.6848    0.0000 C   0  0  0  0  0  0  0  0  0  0  0  0
    0.0973   -2.5098    0.0000 C   0  0  0  0  0  0  0  0  0  0  0  0
   -0.6171   -2.9223    0.0000 C   0  0  0  0  0  0  0  0  0  0  0  0
   -0.6171   -3.7473    0.0000 C   0  0  0  0  0  0  0  0  0  0  0  0
   -1.3316   -4.1598    0.0000 C   0  0  0  0  0  0  0  0  0  0  0  0
   -1.3316   -4.9848    0.0000 C   0  0  0  0  0  0  0  0  0  0  0  0
   -2.0461   -5.3973    0.0000 C   0  0  0  0  0  0  0  0  0  0  0  0
   -2.7605   -4.9848    0.0000 C   0  0  0  0  0  0  0  0  0  0  0  0
   -3.4750   -5.3973    0.0000 N   0  0  0  0  0  0  0  0  0  0  0  0
   -3.4750   -6.2223    0.0000 C   0  0  0  0  0  0  0  0  0  0  0  0
   -3.4750   -7.0473    0.0000 O   0  0  0  0  0  0  0  0  0  0  0  0
   -2.7605   -4.1598    0.0000 C   0  0  0  0  0  0  0  0  0  0  0  0
   -2.0461   -3.7473    0.0000 C   0  0  0  0  0  0  0  0  0  0  0  0
    0.0973   -4.1598    0.0000 C   0  0  0  0  0  0  0  0  0  0  0  0
    0.8118   -3.7473    0.0000 C   0  0  0  0  0  0  0  0  0  0  0  0
    1.5263   -4.1598    0.0000 C   0  0  0  0  0  0  0  0  0  0  0  0
    1.5263   -4.9848    0.0000 C   0  0  0  0  0  0  0  0  0  0  0  0
    2.2408   -5.3973    0.0000 N   0  0  0  0  0  0  0  0  0  0  0  0
    2.2408   -6.2223    0.0000 C   0  0  0  0  0  0  0  0  0  0  0  0
    2.2408   -7.0473    0.0000 O   0  0  0  0  0  0  0  0  0  0  0  0
    0.8118   -5.3973    0.0000 C   0  0  0  0  0  0  0  0  0  0  0  0
    0.0973   -4.9848    0.0000 C   0  0  0  0  0  0  0  0  0  0  0  0
   -1.3316   -2.5098    0.0000 C   0  0  0  0  0  0  0  0  0  0  0  0
   -1.3316   -1.6848    0.0000 C   0  0  0  0  0  0  0  0  0  0  0  0
    0.8118   -1.2723    0.0000 H   0  0  0  0  0  0  0  0  0  0  0  0
    0.8118   -2.9223    0.0000 H   0  0  0  0  0  0  0  0  0  0  0  0
   -1.3316   -3.3348    0.0000 H   0  0  0  0  0  0  0  0  0  0  0  0
   -0.6171   -5.3973    0.0000 H   0  0  0  0  0  0  0  0  0  0  0  0
   -2.0461   -6.2223    0.0000 H   0  0  0  0  0  0  0  0  0  0  0  0
   -3.4750   -3.7473    0.0000 H   0  0  0  0  0  0  0  0  0  0  0  0
   -2.4586   -3.0329    0.0000 H   0  0  0  0  0  0  0  0  0  0  0  0
    0.0973   -3.3348    0.0000 H   0  0  0  0  0  0  0  0  0  0  0  0
    2.2408   -3.7473    0.0000 H   0  0  0  0  0  0  0  0  0  0  0  0
    0.8118   -6.2223    0.0000 H   0  0  0  0  0  0  0  0  0  0  0  0
   -0.6171   -4.5723    0.0000 H   0  0  0  0  0  0  0  0  0  0  0  0
   -2.1566   -2.5098    0.0000 H   0  0  0  0  0  0  0  0  0  0  0  0
   -2.0461   -1.2723    0.0000 H   0  0  0  0  0  0  0  0  0  0  0  0
  1  2  2  0  0  0  0
  2  3  2  0  0  0  0
  3  4  1  0  0  0  0
  4  5  4  0  0  0  0
  5  6  4  0  0  0  0
  6  7  4  0  0  0  0
  7  8  1  0  0  0  0
  8  9  1  0  0  0  0
  9 10  4  0  0  0  0
 10 11  4  0  0  0  0
 11 12  4  0  0  0  0
 12 13  1  0  0  0  0
 13 14  2  0  0  0  0
 14 15  2  0  0  0  0
 12 16  4  0  0  0  0
 16 17  4  0  0  0  0
  9 17  4  0  0  0  0
  8 18  1  0  0  0  0
 18 19  4  0  0  0  0
 19 20  4  0  0  0  0
 20 21  4  0  0  0  0
 21 22  1  0  0  0  0
 22 23  2  0  0  0  0
 23 24  2  0  0  0  0
 21 25  4  0  0  0  0
 25 26  4  0  0  0  0
 18 26  4  0  0  0  0
  7 27  4  0  0  0  0
 27 28  4  0  0  0  0
  4 28  4  0  0  0  0
  5 29  1  0  0  0  0
  6 30  1  0  0  0  0
  8 31  1  0  0  0  0
 10 32  1  0  0  0  0
 11 33  1  0  0  0  0
 16 34  1  0  0  0  0
 17 35  1  0  0  0  0
 19 36  1  0  0  0  0
 20 37  1  0  0  0  0
 25 38  1  0  0  0  0
 26 39  1  0  0  0  0
 27 40  1  0  0  0  0
 28 41  1  0  0  0  0
M  END
> <id>
868

> <casrn>
2422-91-5

> <smiles (First)>


> <Molecular weight>
367.35693359375

> <name>
1,1',1'-methanetriyltris(4-isocyanatobenzene)

> <Outcome>
1

> <Molecule (RDKit Mol) (InChI Code)>
InChI=1S/C22H13N3O3/c26-13-23-19-7-1-16(2-8-19)22(17-3-9-20(10-4-17)24-14-27)18-5-11-21(12-6-18)25-15-28/h1-12,22H

> <reference>
ECHA

> <molecule_form>
A

$$$$

  Mrv1812 01171911372D          

 16 16  0  0  0  0            999 V2000
   -0.0000    2.4750    0.0000 O   0  0  0  0  0  0  0  0  0  0  0  0
    0.7145    2.0625    0.0000 C   0  0  0  0  0  0  0  0  0  0  0  0
    1.4289    2.4750    0.0000 Cl  0  0  0  0  0  0  0  0  0  0  0  0
    0.7145    1.2375    0.0000 C   0  0  0  0  0  0  0  0  0  0  0  0
    1.4289    0.8250    0.0000 C   0  0  0  0  0  0  0  0  0  0  0  0
    1.4289   -0.0000    0.0000 C   0  0  0  0  0  0  0  0  0  0  0  0
    0.7145   -0.4125    0.0000 C   0  0  0  0  0  0  0  0  0  0  0  0
    0.7145   -1.2375    0.0000 C   0  0  0  0  0  0  0  0  0  0  0  0
    1.4289   -1.6500    0.0000 O   0  0  0  0  0  0  0  0  0  0  0  0
   -0.0000   -1.6500    0.0000 Cl  0  0  0  0  0  0  0  0  0  0  0  0
   -0.0000    0.0000    0.0000 C   0  0  0  0  0  0  0  0  0  0  0  0
   -0.0000    0.8250    0.0000 C   0  0  0  0  0  0  0  0  0  0  0  0
    2.1434    1.2375    0.0000 H   0  0  0  0  0  0  0  0  0  0  0  0
    2.1434   -0.4125    0.0000 H   0  0  0  0  0  0  0  0  0  0  0  0
   -0.7145   -0.4125    0.0000 H   0  0  0  0  0  0  0  0  0  0  0  0
   -0.7145    1.2375    0.0000 H   0  0  0  0  0  0  0  0  0  0  0  0
  1  2  2  0  0  0  0
  2  3  1  0  0  0  0
  2  4  1  0  0  0  0
  4  5  4  0  0  0  0
  5  6  4  0  0  0  0
  6  7  4  0  0  0  0
  7  8  1  0  0  0  0
  8  9  2  0  0  0  0
  8 10  1  0  0  0  0
  7 11  4  0  0  0  0
 11 12  4  0  0  0  0
  4 12  4  0  0  0  0
  5 13  1  0  0  0  0
  6 14  1  0  0  0  0
 11 15  1  0  0  0  0
 12 16  1  0  0  0  0
M  END
> <id>
2622

> <casrn>
100-20-9

> <smiles (First)>


> <Molecular weight>
203.02215576171875

> <name>
benzene-1,4-dicarbonyl dichloride

> <Outcome>
1

> <Molecule (RDKit Mol) (InChI Code)>
InChI=1S/C8H4Cl2O2/c9-7(11)5-1-2-6(4-3-5)8(10)12/h1-4H

> <reference>
ECHA

> <molecule_form>
A

$$$$

  Mrv1812 01171911372D          

 16 15  0  0  0  0            999 V2000
   -0.1914    0.7145    0.0000 C   0  0  0  0  0  0  0  0  0  0  0  0
    0.5230    1.1270    0.0000 C   0  0  0  0  0  0  0  0  0  0  0  0
    1.2375    0.7145    0.0000 C   0  0  0  0  0  0  0  0  0  0  0  0
    1.2375   -0.1105    0.0000 C   0  0  0  0  0  0  0  0  0  0  0  0
    1.2375   -0.9355    0.0000 N   0  0  0  0  0  0  0  0  0  0  0  0
    1.9520    1.1270    0.0000 O   0  0  0  0  0  0  0  0  0  0  0  0
    2.6664    0.7145    0.0000 C   0  0  0  0  0  0  0  0  0  0  0  0
    3.3809    1.1270    0.0000 C   0  0  0  0  0  0  0  0  0  0  0  0
    2.6664   -0.1105    0.0000 O   0  0  0  0  0  0  0  0  0  0  0  0
   -0.9059    1.1270    0.0000 H   0  0  0  0  0  0  0  0  0  0  0  0
   -0.1914   -0.1105    0.0000 H   0  0  0  0  0  0  0  0  0  0  0  0
    0.5230    1.9520    0.0000 H   0  0  0  0  0  0  0  0  0  0  0  0
    0.5230    0.3020    0.0000 H   0  0  0  0  0  0  0  0  0  0  0  0
    3.7934    0.4125    0.0000 H   0  0  0  0  0  0  0  0  0  0  0  0
    4.0954    1.5395    0.0000 H   0  0  0  0  0  0  0  0  0  0  0  0
    2.9684    1.8415    0.0000 H   0  0  0  0  0  0  0  0  0  0  0  0
  1  2  2  0  0  0  0
  2  3  1  0  0  0  0
  3  4  1  0  0  0  0
  4  5  3  0  0  0  0
  3  6  1  0  0  0  0
  6  7  1  0  0  0  0
  7  8  1  0  0  0  0
  7  9  2  0  0  0  0
  1 10  1  0  0  0  0
  1 11  1  0  0  0  0
  2 12  1  0  0  0  0
  3 13  1  0  0  0  0
  8 14  1  0  0  0  0
  8 15  1  0  0  0  0
  8 16  1  0  0  0  0
M  END
> <id>
1155

> <casrn>
15667-63-7

> <smiles (First)>


> <Molecular weight>
125.12528228759766

> <name>
1-cyanoprop-2-en-1-yl acetate

> <Outcome>
1

> <Molecule (RDKit Mol) (InChI Code)>
InChI=1S/C6H7NO2/c1-3-6(4-7)9-5(2)8/h3,6H,1H2,2H3

> <reference>
ECHA

> <molecule_form>
V

$$$$

  Mrv1812 01171911372D          

  9  9  0  0  0  0            999 V2000
    0.7145    2.0625    0.0000 Cl  0  0  0  0  0  0  0  0  0  0  0  0
    0.7145    1.2375    0.0000 C   0  0  0  0  0  0  0  0  0  0  0  0
    1.4289    0.8250    0.0000 N   0  0  0  0  0  0  0  0  0  0  0  0
    1.4289   -0.0000    0.0000 C   0  0  0  0  0  0  0  0  0  0  0  0
    2.1434   -0.4125    0.0000 Cl  0  0  0  0  0  0  0  0  0  0  0  0
    0.7145   -0.4125    0.0000 N   0  0  0  0  0  0  0  0  0  0  0  0
   -0.0000    0.0000    0.0000 C   0  0  0  0  0  0  0  0  0  0  0  0
   -0.7145   -0.4125    0.0000 Cl  0  0  0  0  0  0  0  0  0  0  0  0
   -0.0000    0.8250    0.0000 N   0  0  0  0  0  0  0  0  0  0  0  0
  1  2  1  0  0  0  0
  2  3  4  0  0  0  0
  3  4  4  0  0  0  0
  4  5  1  0  0  0  0
  4  6  4  0  0  0  0
  6  7  4  0  0  0  0
  7  8  1  0  0  0  0
  7  9  4  0  0  0  0
  2  9  4  0  0  0  0
M  END
> <id>
4031

> <casrn>
108-77-0

> <smiles (First)>


> <Molecular weight>
184.41119384765625

> <name>
trichloro-1,3,5-triazine

> <Outcome>
1

> <Molecule (RDKit Mol) (InChI Code)>
InChI=1S/C3Cl3N3/c4-1-7-2(5)9-3(6)8-1

> <reference>
ECHA

> <molecule_form>
A

$$$$

  Mrv1812 01171911372D          

 16 15  0  0  0  0            999 V2000
    1.7590    1.6178    0.0000 C   0  0  0  0  0  0  0  0  0  0  0  0
    1.3465    0.9033    0.0000 C   0  0  0  0  0  0  0  0  0  0  0  0
    0.6320    1.3158    0.0000 C   0  0  0  0  0  0  0  0  0  0  0  0
    2.0610    0.4908    0.0000 C   0  0  0  0  0  0  0  0  0  0  0  0
    0.9340    0.1889    0.0000 N   0  0  0  0  0  0  0  0  0  0  0  0
    0.1090    0.1889    0.0000 C   0  0  0  0  0  0  0  0  0  0  0  0
   -0.7160    0.1889    0.0000 O   0  0  0  0  0  0  0  0  0  0  0  0
    2.4735    1.2053    0.0000 H   0  0  0  0  0  0  0  0  0  0  0  0
    2.1715    2.3323    0.0000 H   0  0  0  0  0  0  0  0  0  0  0  0
    1.0445    2.0303    0.0000 H   0  0  0  0  0  0  0  0  0  0  0  0
    0.1298    1.9703    0.0000 H   0  0  0  0  0  0  0  0  0  0  0  0
   -0.1648    1.1023    0.0000 H   0  0  0  0  0  0  0  0  0  0  0  0
    0.5244    0.4979    0.0000 H   0  0  0  0  0  0  0  0  0  0  0  0
    1.4065   -0.0114    0.0000 H   0  0  0  0  0  0  0  0  0  0  0  0
    2.2745   -0.3061    0.0000 H   0  0  0  0  0  0  0  0  0  0  0  0
    2.8789    0.3831    0.0000 H   0  0  0  0  0  0  0  0  0  0  0  0
  1  2  1  0  0  0  0
  2  3  1  0  0  0  0
  2  4  1  0  0  0  0
  2  5  1  0  0  0  0
  5  6  2  0  0  0  0
  6  7  2  0  0  0  0
  1  8  1  0  0  0  0
  1  9  1  0  0  0  0
  1 10  1  0  0  0  0
  3 11  1  0  0  0  0
  3 12  1  0  0  0  0
  3 13  1  0  0  0  0
  4 14  1  0  0  0  0
  4 15  1  0  0  0  0
  4 16  1  0  0  0  0
M  END
> <id>
1491

> <casrn>
1609-86-5

> <smiles (First)>


> <Molecular weight>
99.13105773925781

> <name>
2-isocyanato-2-methylpropane

> <Outcome>
1

> <Molecule (RDKit Mol) (InChI Code)>
InChI=1S/C5H9NO/c1-5(2,3)6-4-7/h1-3H3

> <reference>
ECHA

> <molecule_form>
V

$$$$

  Mrv1812 01171911372D          

 20 19  0  0  0  0            999 V2000
    1.2659    2.2561    0.0000 C   0  0  0  0  0  0  0  0  0  0  0  0
    0.8534    1.5416    0.0000 C   0  0  0  0  0  0  0  0  0  0  0  0
    0.0284    1.5416    0.0000 O   0  0  0  0  0  0  0  0  0  0  0  0
    1.2659    0.8272    0.0000 C   0  0  0  0  0  0  0  0  0  0  0  0
    0.8534    0.1127    0.0000 N   0  0  0  0  0  0  0  0  0  0  0  0
    1.2659   -0.6018    0.0000 C   0  0  0  0  0  0  0  0  0  0  0  0
    0.0284    0.1127    0.0000 C   0  0  0  0  0  0  0  0  0  0  0  0
    1.9804    1.8436    0.0000 H   0  0  0  0  0  0  0  0  0  0  0  0
    1.6784    2.9706    0.0000 H   0  0  0  0  0  0  0  0  0  0  0  0
    0.5514    2.6686    0.0000 H   0  0  0  0  0  0  0  0  0  0  0  0
    0.4409    2.2561    0.0000 H   0  0  0  0  0  0  0  0  0  0  0  0
   -0.6861    1.1291    0.0000 H   0  0  0  0  0  0  0  0  0  0  0  0
    2.0032    0.4569    0.0000 H   0  0  0  0  0  0  0  0  0  0  0  0
    2.0032    1.1974    0.0000 H   0  0  0  0  0  0  0  0  0  0  0  0
    0.5514   -1.0143    0.0000 H   0  0  0  0  0  0  0  0  0  0  0  0
    1.6784   -1.3162    0.0000 H   0  0  0  0  0  0  0  0  0  0  0  0
    1.9804   -0.1893    0.0000 H   0  0  0  0  0  0  0  0  0  0  0  0
    0.0284    0.9377    0.0000 H   0  0  0  0  0  0  0  0  0  0  0  0
   -0.7966    0.1127    0.0000 H   0  0  0  0  0  0  0  0  0  0  0  0
    0.0284   -0.7123    0.0000 H   0  0  0  0  0  0  0  0  0  0  0  0
  1  2  1  0  0  0  0
  2  3  1  0  0  0  0
  2  4  1  0  0  0  0
  4  5  1  0  0  0  0
  5  6  1  0  0  0  0
  5  7  1  0  0  0  0
  1  8  1  0  0  0  0
  1  9  1  0  0  0  0
  1 10  1  0  0  0  0
  2 11  1  0  0  0  0
  3 12  1  0  0  0  0
  4 13  1  0  0  0  0
  4 14  1  0  0  0  0
  6 15  1  0  0  0  0
  6 16  1  0  0  0  0
  6 17  1  0  0  0  0
  7 18  1  0  0  0  0
  7 19  1  0  0  0  0
  7 20  1  0  0  0  0
M  END
> <id>
1093

> <casrn>
108-16-7

> <smiles (First)>


> <Molecular weight>
103.1628189086914

> <name>
1-(dimethylamino)propan-2-ol

> <Outcome>
1

> <Molecule (RDKit Mol) (InChI Code)>
InChI=1S/C5H13NO/c1-5(7)4-6(2)3/h5,7H,4H2,1-3H3

> <reference>
ECHA

> <molecule_form>
V

$$$$

  Mrv1812 01171911372D          

 26 25  0  0  0  0            999 V2000
    0.1262   -2.1053    0.0000 C   0  0  0  0  0  0  0  0  0  0  0  0
    0.1262   -1.2803    0.0000 C   0  0  0  0  0  0  0  0  0  0  0  0
   -0.5883   -0.8678    0.0000 C   0  0  0  0  0  0  0  0  0  0  0  0
    0.8407   -0.8678    0.0000 C   0  0  0  0  0  0  0  0  0  0  0  0
    0.8407   -0.0428    0.0000 C   0  0  0  0  0  0  0  0  0  0  0  0
    0.8407    0.7822    0.0000 C   0  0  0  0  0  0  0  0  0  0  0  0
    1.6657   -0.0428    0.0000 C   0  0  0  0  0  0  0  0  0  0  0  0
    0.0157   -0.0428    0.0000 C   0  0  0  0  0  0  0  0  0  0  0  0
   -0.6988   -2.1053    0.0000 H   0  0  0  0  0  0  0  0  0  0  0  0
    0.1262   -2.9303    0.0000 H   0  0  0  0  0  0  0  0  0  0  0  0
    0.9512   -2.1053    0.0000 H   0  0  0  0  0  0  0  0  0  0  0  0
   -0.5883   -1.6928    0.0000 H   0  0  0  0  0  0  0  0  0  0  0  0
   -0.0049   -0.2845    0.0000 H   0  0  0  0  0  0  0  0  0  0  0  0
   -1.0008   -0.1534    0.0000 H   0  0  0  0  0  0  0  0  0  0  0  0
   -1.3852   -1.0814    0.0000 H   0  0  0  0  0  0  0  0  0  0  0  0
    1.2940   -1.5571    0.0000 H   0  0  0  0  0  0  0  0  0  0  0  0
    1.6643   -0.9158    0.0000 H   0  0  0  0  0  0  0  0  0  0  0  0
    1.6657    0.7822    0.0000 H   0  0  0  0  0  0  0  0  0  0  0  0
    0.8407    1.6072    0.0000 H   0  0  0  0  0  0  0  0  0  0  0  0
    0.0157    0.7822    0.0000 H   0  0  0  0  0  0  0  0  0  0  0  0
    2.2483   -0.6269    0.0000 H   0  0  0  0  0  0  0  0  0  0  0  0
    2.4907   -0.0435    0.0000 H   0  0  0  0  0  0  0  0  0  0  0  0
    2.2493    0.5403    0.0000 H   0  0  0  0  0  0  0  0  0  0  0  0
   -0.5552    0.5528    0.0000 H   0  0  0  0  0  0  0  0  0  0  0  0
   -0.8086   -0.0078    0.0000 H   0  0  0  0  0  0  0  0  0  0  0  0
   -0.6037   -0.5879    0.0000 H   0  0  0  0  0  0  0  0  0  0  0  0
  1  2  1  0  0  0  0
  2  3  1  0  0  0  0
  2  4  1  0  0  0  0
  4  5  1  0  0  0  0
  5  6  1  0  0  0  0
  5  7  1  0  0  0  0
  5  8  1  0  0  0  0
  1  9  1  0  0  0  0
  1 10  1  0  0  0  0
  1 11  1  0  0  0  0
  2 12  1  0  0  0  0
  3 13  1  0  0  0  0
  3 14  1  0  0  0  0
  3 15  1  0  0  0  0
  4 16  1  0  0  0  0
  4 17  1  0  0  0  0
  6 18  1  0  0  0  0
  6 19  1  0  0  0  0
  6 20  1  0  0  0  0
  7 21  1  0  0  0  0
  7 22  1  0  0  0  0
  7 23  1  0  0  0  0
  8 24  1  0  0  0  0
  8 25  1  0  0  0  0
  8 26  1  0  0  0  0
M  END
> <id>
1264

> <casrn>
540-84-1

> <smiles (First)>


> <Molecular weight>
114.22852325439453

> <name>
2,2,4-trimethylpentane

> <Outcome>
0

> <Molecule (RDKit Mol) (InChI Code)>
InChI=1S/C8H18/c1-7(2)6-8(3,4)5/h7H,6H2,1-5H3

> <reference>
ECHA

> <molecule_form>
V

$$$$

  Mrv1812 01171911372D          

 34 34  0  0  0  0            999 V2000
    1.3512    1.8121    0.0000 C   0  0  0  0  0  0  0  0  0  0  0  0
    0.8209    1.1801    0.0000 C   0  0  0  0  0  0  0  0  0  0  0  0
    0.2906    1.8121    0.0000 C   0  0  0  0  0  0  0  0  0  0  0  0
    1.5354    0.7676    0.0000 C   0  0  0  0  0  0  0  0  0  0  0  0
    1.5354   -0.0574    0.0000 C   0  0  0  0  0  0  0  0  0  0  0  0
    2.2499   -0.4699    0.0000 N   0  0  0  0  0  0  0  0  0  0  0  0
    2.9644   -0.0574    0.0000 C   0  0  0  0  0  0  0  0  0  0  0  0
    3.6788    0.3551    0.0000 O   0  0  0  0  0  0  0  0  0  0  0  0
    0.8209   -0.4699    0.0000 C   0  0  0  0  0  0  0  0  0  0  0  0
    0.1065   -0.0574    0.0000 C   0  0  0  0  0  0  0  0  0  0  0  0
   -0.1757   -0.8326    0.0000 C   0  0  0  0  0  0  0  0  0  0  0  0
   -0.7060    0.0859    0.0000 C   0  0  0  0  0  0  0  0  0  0  0  0
   -0.9882    0.8611    0.0000 N   0  0  0  0  0  0  0  0  0  0  0  0
   -1.8006    1.0044    0.0000 C   0  0  0  0  0  0  0  0  0  0  0  0
   -2.6131    1.1476    0.0000 O   0  0  0  0  0  0  0  0  0  0  0  0
    0.1065    0.7676    0.0000 C   0  0  0  0  0  0  0  0  0  0  0  0
    1.9832    1.2818    0.0000 H   0  0  0  0  0  0  0  0  0  0  0  0
    1.8815    2.4441    0.0000 H   0  0  0  0  0  0  0  0  0  0  0  0
    0.7193    2.3424    0.0000 H   0  0  0  0  0  0  0  0  0  0  0  0
   -0.0683    2.5549    0.0000 H   0  0  0  0  0  0  0  0  0  0  0  0
   -0.5343    1.8045    0.0000 H   0  0  0  0  0  0  0  0  0  0  0  0
   -0.0546    1.0628    0.0000 H   0  0  0  0  0  0  0  0  0  0  0  0
    2.3080    0.4783    0.0000 H   0  0  0  0  0  0  0  0  0  0  0  0
    0.8209    0.3551    0.0000 H   0  0  0  0  0  0  0  0  0  0  0  0
    1.5354   -0.8824    0.0000 H   0  0  0  0  0  0  0  0  0  0  0  0
    0.1890   -1.0002    0.0000 H   0  0  0  0  0  0  0  0  0  0  0  0
    0.6777   -1.2824    0.0000 H   0  0  0  0  0  0  0  0  0  0  0  0
   -0.7647   -0.2549    0.0000 H   0  0  0  0  0  0  0  0  0  0  0  0
   -0.9453   -1.1297    0.0000 H   0  0  0  0  0  0  0  0  0  0  0  0
   -0.2238   -1.6562    0.0000 H   0  0  0  0  0  0  0  0  0  0  0  0
   -1.5277    0.0123    0.0000 H   0  0  0  0  0  0  0  0  0  0  0  0
   -0.1757    0.7178    0.0000 H   0  0  0  0  0  0  0  0  0  0  0  0
    0.3296    1.5619    0.0000 H   0  0  0  0  0  0  0  0  0  0  0  0
   -0.6370    1.1253    0.0000 H   0  0  0  0  0  0  0  0  0  0  0  0
  1  2  1  0  0  0  0
  2  3  1  0  0  0  0
  2  4  1  0  0  0  0
  4  5  1  0  0  0  0
  5  6  1  0  0  0  0
  6  7  2  0  0  0  0
  7  8  2  0  0  0  0
  5  9  1  0  0  0  0
  9 10  1  0  0  0  0
 10 11  1  0  0  0  0
 10 12  1  0  0  0  0
 12 13  1  0  0  0  0
 13 14  2  0  0  0  0
 14 15  2  0  0  0  0
 10 16  1  0  0  0  0
  2 16  1  0  0  0  0
  1 17  1  0  0  0  0
  1 18  1  0  0  0  0
  1 19  1  0  0  0  0
  3 20  1  0  0  0  0
  3 21  1  0  0  0  0
  3 22  1  0  0  0  0
  4 23  1  0  0  0  0
  4 24  1  0  0  0  0
  5 25  1  0  0  0  0
  9 26  1  0  0  0  0
  9 27  1  0  0  0  0
 11 28  1  0  0  0  0
 11 29  1  0  0  0  0
 11 30  1  0  0  0  0
 12 31  1  0  0  0  0
 12 32  1  0  0  0  0
 16 33  1  0  0  0  0
 16 34  1  0  0  0  0
M  END
> <id>
1868; 1869

> <casrn>
4098-71-9

> <smiles (First)>


> <Molecular weight>
222.2835235595703

> <name>
5-isocyanato-1-(isocyanatomethyl)-1,3,3-trimethylcyclohexane

> <Outcome>
1

> <Molecule (RDKit Mol) (InChI Code)>
InChI=1S/C12H18N2O2/c1-11(2)4-10(14-9-16)5-12(3,6-11)7-13-8-15/h10H,4-7H2,1-3H3

> <reference>
ECHA

> <molecule_form>
A

$$$$

  Mrv1812 01171911372D          

 17 17  0  0  0  0            999 V2000
    0.7334    2.0578    0.0000 N   0  0  0  0  0  0  0  0  0  0  0  0
    0.7334    1.2328    0.0000 C   0  0  0  0  0  0  0  0  0  0  0  0
    1.4008    0.7479    0.0000 C   0  0  0  0  0  0  0  0  0  0  0  0
    1.1459   -0.0367    0.0000 C   0  0  0  0  0  0  0  0  0  0  0  0
    0.3209   -0.0367    0.0000 C   0  0  0  0  0  0  0  0  0  0  0  0
    0.0659    0.7479    0.0000 C   0  0  0  0  0  0  0  0  0  0  0  0
    1.4478    2.4703    0.0000 H   0  0  0  0  0  0  0  0  0  0  0  0
    0.0189    2.4703    0.0000 H   0  0  0  0  0  0  0  0  0  0  0  0
   -0.0017    1.6074    0.0000 H   0  0  0  0  0  0  0  0  0  0  0  0
    2.2133    0.6046    0.0000 H   0  0  0  0  0  0  0  0  0  0  0  0
    1.9739    1.3413    0.0000 H   0  0  0  0  0  0  0  0  0  0  0  0
    1.2607   -0.8537    0.0000 H   0  0  0  0  0  0  0  0  0  0  0  0
    1.8874   -0.3984    0.0000 H   0  0  0  0  0  0  0  0  0  0  0  0
   -0.4206   -0.3984    0.0000 H   0  0  0  0  0  0  0  0  0  0  0  0
    0.2060   -0.8537    0.0000 H   0  0  0  0  0  0  0  0  0  0  0  0
   -0.7459    0.8947    0.0000 H   0  0  0  0  0  0  0  0  0  0  0  0
   -0.6279    0.3016    0.0000 H   0  0  0  0  0  0  0  0  0  0  0  0
  1  2  1  0  0  0  0
  2  3  1  0  0  0  0
  3  4  1  0  0  0  0
  4  5  1  0  0  0  0
  5  6  1  0  0  0  0
  2  6  1  0  0  0  0
  1  7  1  0  0  0  0
  1  8  1  0  0  0  0
  2  9  1  0  0  0  0
  3 10  1  0  0  0  0
  3 11  1  0  0  0  0
  4 12  1  0  0  0  0
  4 13  1  0  0  0  0
  5 14  1  0  0  0  0
  5 15  1  0  0  0  0
  6 16  1  0  0  0  0
  6 17  1  0  0  0  0
M  END
> <id>
2842

> <casrn>
1003-03-8

> <smiles (First)>


> <Molecular weight>
85.14753723144531

> <name>
cyclopentanamine

> <Outcome>
1

> <Molecule (RDKit Mol) (InChI Code)>
InChI=1S/C5H11N/c6-5-3-1-2-4-5/h5H,1-4,6H2

> <reference>
ECHA

> <molecule_form>
V

$$$$

  Mrv1812 01171911372D          

  9  8  0  0  0  0            999 V2000
    0.8250    1.4289    0.0000 C   0  0  0  0  0  0  0  0  0  0  0  0
    1.2375    0.7145    0.0000 C   0  0  0  0  0  0  0  0  0  0  0  0
    0.8250   -0.0000    0.0000 C   0  0  0  0  0  0  0  0  0  0  0  0
    1.2375   -0.7145    0.0000 O   0  0  0  0  0  0  0  0  0  0  0  0
   -0.0000   -0.0000    0.0000 O   0  0  0  0  0  0  0  0  0  0  0  0
    1.2375    2.1434    0.0000 H   0  0  0  0  0  0  0  0  0  0  0  0
   -0.0000    1.4289    0.0000 H   0  0  0  0  0  0  0  0  0  0  0  0
    2.0625    0.7145    0.0000 H   0  0  0  0  0  0  0  0  0  0  0  0
   -0.4125    0.7145    0.0000 H   0  0  0  0  0  0  0  0  0  0  0  0
  1  2  2  0  0  0  0
  2  3  1  0  0  0  0
  3  4  2  0  0  0  0
  3  5  1  0  0  0  0
  1  6  1  0  0  0  0
  1  7  1  0  0  0  0
  2  8  1  0  0  0  0
  5  9  1  0  0  0  0
M  END
> <id>
3782; 3781

> <casrn>
79-10-7

> <smiles (First)>


> <Molecular weight>
72.06266021728516

> <name>
prop-2-enoic acid

> <Outcome>
1

> <Molecule (RDKit Mol) (InChI Code)>
InChI=1S/C3H4O2/c1-2-3(4)5/h2H,1H2,(H,4,5)

> <reference>
ECHA

> <molecule_form>
V

$$$$

  Mrv1812 01171911372D          

  7  6  0  0  0  0            999 V2000
    2.0625   -0.7145    0.0000 C   0  0  0  0  0  0  0  0  0  0  0  0
    1.6500   -0.0000    0.0000 C   0  0  0  0  0  0  0  0  0  0  0  0
    0.8250   -0.0000    0.0000 C   0  0  0  0  0  0  0  0  0  0  0  0
   -0.0000   -0.0000    0.0000 N   0  0  0  0  0  0  0  0  0  0  0  0
    1.6500   -1.4290    0.0000 H   0  0  0  0  0  0  0  0  0  0  0  0
    2.8875   -0.7145    0.0000 H   0  0  0  0  0  0  0  0  0  0  0  0
    2.0625    0.7145    0.0000 H   0  0  0  0  0  0  0  0  0  0  0  0
  1  2  2  0  0  0  0
  2  3  1  0  0  0  0
  3  4  3  0  0  0  0
  1  5  1  0  0  0  0
  1  6  1  0  0  0  0
  2  7  1  0  0  0  0
M  END
> <id>
3777; 3775; 3776

> <casrn>
107-13-1

> <smiles (First)>


> <Molecular weight>
53.06262207031249

> <name>
prop-2-enenitrile

> <Outcome>
1

> <Molecule (RDKit Mol) (InChI Code)>
InChI=1S/C3H3N/c1-2-3-4/h2H,1H2

> <reference>
ECHA

> <molecule_form>
V

$$$$

  Mrv1812 01171911372D          

 19 18  0  0  0  0            999 V2000
    2.9980    2.5541    0.0000 Cl  0  0  0  0  0  0  0  0  0  0  0  0
    3.7125    2.1416    0.0000 C   0  0  0  0  0  0  0  0  0  0  0  0
    4.4270    2.5541    0.0000 C   0  0  0  0  0  0  0  0  0  0  0  0
    5.1414    2.1416    0.0000 O   0  0  0  0  0  0  0  0  0  0  0  0
    5.8559    2.5541    0.0000 C   0  0  0  0  0  0  0  0  0  0  0  0
    6.5704    2.1416    0.0000 O   0  0  0  0  0  0  0  0  0  0  0  0
    7.2849    2.5541    0.0000 C   0  0  0  0  0  0  0  0  0  0  0  0
    7.9993    2.1416    0.0000 C   0  0  0  0  0  0  0  0  0  0  0  0
    8.7138    2.5541    0.0000 Cl  0  0  0  0  0  0  0  0  0  0  0  0
    3.3422    1.4043    0.0000 H   0  0  0  0  0  0  0  0  0  0  0  0
    4.0828    1.4043    0.0000 H   0  0  0  0  0  0  0  0  0  0  0  0
    4.7972    3.2913    0.0000 H   0  0  0  0  0  0  0  0  0  0  0  0
    4.0567    3.2913    0.0000 H   0  0  0  0  0  0  0  0  0  0  0  0
    6.2262    3.2913    0.0000 H   0  0  0  0  0  0  0  0  0  0  0  0
    5.4857    3.2913    0.0000 H   0  0  0  0  0  0  0  0  0  0  0  0
    7.6551    3.2913    0.0000 H   0  0  0  0  0  0  0  0  0  0  0  0
    6.9146    3.2913    0.0000 H   0  0  0  0  0  0  0  0  0  0  0  0
    7.6291    1.4043    0.0000 H   0  0  0  0  0  0  0  0  0  0  0  0
    8.3696    1.4043    0.0000 H   0  0  0  0  0  0  0  0  0  0  0  0
  1  2  1  0  0  0  0
  2  3  1  0  0  0  0
  3  4  1  0  0  0  0
  4  5  1  0  0  0  0
  5  6  1  0  0  0  0
  6  7  1  0  0  0  0
  7  8  1  0  0  0  0
  8  9  1  0  0  0  0
  2 10  1  0  0  0  0
  2 11  1  0  0  0  0
  3 12  1  0  0  0  0
  3 13  1  0  0  0  0
  5 14  1  0  0  0  0
  5 15  1  0  0  0  0
  7 16  1  0  0  0  0
  7 17  1  0  0  0  0
  8 18  1  0  0  0  0
  8 19  1  0  0  0  0
M  END
> <id>
1135

> <casrn>
111-91-1

> <smiles (First)>


> <Molecular weight>
173.03770446777344

> <name>
1-chloro-2-[(2-chloroethoxy)methoxy]ethane

> <Outcome>
1

> <Molecule (RDKit Mol) (InChI Code)>
InChI=1S/C5H10Cl2O2/c6-1-3-8-5-9-4-2-7/h1-5H2

> <reference>
ECHA

> <molecule_form>
A

$$$$

  Mrv1812 01171911372D          

 28 29  0  0  0  0            999 V2000
    0.7188   -1.1585    0.0000 C   0  0  0  0  0  0  0  0  0  0  0  0
    0.7188   -0.3335    0.0000 C   0  0  0  0  0  0  0  0  0  0  0  0
    1.4333    0.0790    0.0000 C   0  0  0  0  0  0  0  0  0  0  0  0
    2.1478   -0.3335    0.0000 C   0  0  0  0  0  0  0  0  0  0  0  0
    2.8622    0.0790    0.0000 C   0  0  0  0  0  0  0  0  0  0  0  0
    3.5767   -0.3335    0.0000 C   0  0  0  0  0  0  0  0  0  0  0  0
    3.5767   -1.1585    0.0000 C   0  0  0  0  0  0  0  0  0  0  0  0
    2.8622   -1.5710    0.0000 C   0  0  0  0  0  0  0  0  0  0  0  0
    2.1478   -1.1585    0.0000 C   0  0  0  0  0  0  0  0  0  0  0  0
    1.4333   -1.5710    0.0000 C   0  0  0  0  0  0  0  0  0  0  0  0
   -0.1048   -1.2065    0.0000 H   0  0  0  0  0  0  0  0  0  0  0  0
    0.2655   -1.8478    0.0000 H   0  0  0  0  0  0  0  0  0  0  0  0
    0.2655    0.3558    0.0000 H   0  0  0  0  0  0  0  0  0  0  0  0
   -0.1048   -0.2855    0.0000 H   0  0  0  0  0  0  0  0  0  0  0  0
    1.8035    0.8162    0.0000 H   0  0  0  0  0  0  0  0  0  0  0  0
    1.0630    0.8162    0.0000 H   0  0  0  0  0  0  0  0  0  0  0  0
    2.8622   -0.7460    0.0000 H   0  0  0  0  0  0  0  0  0  0  0  0
    3.2325    0.8162    0.0000 H   0  0  0  0  0  0  0  0  0  0  0  0
    2.4920    0.8162    0.0000 H   0  0  0  0  0  0  0  0  0  0  0  0
    4.4003   -0.2855    0.0000 H   0  0  0  0  0  0  0  0  0  0  0  0
    4.0300    0.3558    0.0000 H   0  0  0  0  0  0  0  0  0  0  0  0
    4.0300   -1.8478    0.0000 H   0  0  0  0  0  0  0  0  0  0  0  0
    4.4003   -1.2065    0.0000 H   0  0  0  0  0  0  0  0  0  0  0  0
    2.4920   -2.3083    0.0000 H   0  0  0  0  0  0  0  0  0  0  0  0
    3.2325   -2.3083    0.0000 H   0  0  0  0  0  0  0  0  0  0  0  0
    2.1478   -1.9835    0.0000 H   0  0  0  0  0  0  0  0  0  0  0  0
    0.8013   -2.1013    0.0000 H   0  0  0  0  0  0  0  0  0  0  0  0
    1.2900   -2.3835    0.0000 H   0  0  0  0  0  0  0  0  0  0  0  0
  1  2  1  0  0  0  0
  2  3  1  0  0  0  0
  3  4  1  0  0  0  0
  4  5  1  0  0  0  0
  5  6  1  0  0  0  0
  6  7  1  0  0  0  0
  7  8  1  0  0  0  0
  8  9  1  0  0  0  0
  4  9  1  0  0  0  0
  9 10  1  0  0  0  0
  1 10  1  0  0  0  0
  1 11  1  0  0  0  0
  1 12  1  0  0  0  0
  2 13  1  0  0  0  0
  2 14  1  0  0  0  0
  3 15  1  0  0  0  0
  3 16  1  0  0  0  0
  4 17  1  0  0  0  0
  5 18  1  0  0  0  0
  5 19  1  0  0  0  0
  6 20  1  0  0  0  0
  6 21  1  0  0  0  0
  7 22  1  0  0  0  0
  7 23  1  0  0  0  0
  8 24  1  0  0  0  0
  8 25  1  0  0  0  0
  9 26  1  0  0  0  0
 10 27  1  0  0  0  0
 10 28  1  0  0  0  0
M  END
> <id>
2881; 2882; 2883

> <casrn>
91-17-8

> <smiles (First)>


> <Molecular weight>
138.2499237060547

> <name>
decahydronaphthalene

> <Outcome>
1

> <Molecule (RDKit Mol) (InChI Code)>
InChI=1S/C10H18/c1-2-6-10-8-4-3-7-9(10)5-1/h9-10H,1-8H2

> <reference>
ECHA

> <molecule_form>
V

$$$$

  Mrv1812 01171911372D          

 14 14  0  0  0  0            999 V2000
   -0.7145    2.8875    0.0000 O   0  0  0  0  0  0  0  0  0  0  0  0
   -0.0000    2.4750    0.0000 C   0  0  0  0  0  0  0  0  0  0  0  0
    0.7145    2.0625    0.0000 N   0  0  0  0  0  0  0  0  0  0  0  0
    0.7145    1.2375    0.0000 C   0  0  0  0  0  0  0  0  0  0  0  0
    1.4289    0.8250    0.0000 C   0  0  0  0  0  0  0  0  0  0  0  0
    1.4289   -0.0000    0.0000 C   0  0  0  0  0  0  0  0  0  0  0  0
    0.7145   -0.4125    0.0000 C   0  0  0  0  0  0  0  0  0  0  0  0
   -0.0000   -0.0000    0.0000 C   0  0  0  0  0  0  0  0  0  0  0  0
   -0.0000    0.8250    0.0000 C   0  0  0  0  0  0  0  0  0  0  0  0
   -0.7145    1.2375    0.0000 Cl  0  0  0  0  0  0  0  0  0  0  0  0
    2.1434    1.2375    0.0000 H   0  0  0  0  0  0  0  0  0  0  0  0
    2.1434   -0.4125    0.0000 H   0  0  0  0  0  0  0  0  0  0  0  0
    0.7145   -1.2375    0.0000 H   0  0  0  0  0  0  0  0  0  0  0  0
   -0.7145   -0.4125    0.0000 H   0  0  0  0  0  0  0  0  0  0  0  0
  1  2  2  0  0  0  0
  2  3  2  0  0  0  0
  3  4  1  0  0  0  0
  4  5  4  0  0  0  0
  5  6  4  0  0  0  0
  6  7  4  0  0  0  0
  7  8  4  0  0  0  0
  8  9  4  0  0  0  0
  4  9  4  0  0  0  0
  9 10  1  0  0  0  0
  5 11  1  0  0  0  0
  6 12  1  0  0  0  0
  7 13  1  0  0  0  0
  8 14  1  0  0  0  0
M  END
> <id>
1136

> <casrn>
3320-83-0

> <smiles (First)>


> <Molecular weight>
153.56576538085938

> <name>
1-chloro-2-isocyanatobenzene

> <Outcome>
1

> <Molecule (RDKit Mol) (InChI Code)>
InChI=1S/C7H4ClNO/c8-6-3-1-2-4-7(6)9-5-10/h1-4H

> <reference>
ECHA

> <molecule_form>
V

$$$$

  Mrv1812 01171911372D          

 19 18  0  0  0  0            999 V2000
    1.2791    2.2000    0.0000 C   0  0  0  0  0  0  0  0  0  0  0  0
    0.8666    1.4855    0.0000 C   0  0  0  0  0  0  0  0  0  0  0  0
    0.0416    1.4855    0.0000 O   0  0  0  0  0  0  0  0  0  0  0  0
    1.2791    0.7711    0.0000 C   0  0  0  0  0  0  0  0  0  0  0  0
    0.8666    0.0566    0.0000 C   0  0  0  0  0  0  0  0  0  0  0  0
    1.2791   -0.6579    0.0000 C   0  0  0  0  0  0  0  0  0  0  0  0
    0.0416    0.0566    0.0000 C   0  0  0  0  0  0  0  0  0  0  0  0
    1.9936    1.7875    0.0000 H   0  0  0  0  0  0  0  0  0  0  0  0
    1.6916    2.9145    0.0000 H   0  0  0  0  0  0  0  0  0  0  0  0
    0.5646    2.6125    0.0000 H   0  0  0  0  0  0  0  0  0  0  0  0
    2.0163    0.4008    0.0000 H   0  0  0  0  0  0  0  0  0  0  0  0
    2.0163    1.1413    0.0000 H   0  0  0  0  0  0  0  0  0  0  0  0
    1.6916    0.0566    0.0000 H   0  0  0  0  0  0  0  0  0  0  0  0
    0.4822   -0.8714    0.0000 H   0  0  0  0  0  0  0  0  0  0  0  0
    1.2791   -1.4829    0.0000 H   0  0  0  0  0  0  0  0  0  0  0  0
    2.0760   -0.8714    0.0000 H   0  0  0  0  0  0  0  0  0  0  0  0
    0.0416    0.8816    0.0000 H   0  0  0  0  0  0  0  0  0  0  0  0
   -0.7834    0.0566    0.0000 H   0  0  0  0  0  0  0  0  0  0  0  0
    0.0416   -0.7684    0.0000 H   0  0  0  0  0  0  0  0  0  0  0  0
  1  2  1  0  0  0  0
  2  3  2  0  0  0  0
  2  4  1  0  0  0  0
  4  5  1  0  0  0  0
  5  6  1  0  0  0  0
  5  7  1  0  0  0  0
  1  8  1  0  0  0  0
  1  9  1  0  0  0  0
  1 10  1  0  0  0  0
  4 11  1  0  0  0  0
  4 12  1  0  0  0  0
  5 13  1  0  0  0  0
  6 14  1  0  0  0  0
  6 15  1  0  0  0  0
  6 16  1  0  0  0  0
  7 17  1  0  0  0  0
  7 18  1  0  0  0  0
  7 19  1  0  0  0  0
M  END
> <id>
1848

> <casrn>
108-10-1

> <smiles (First)>


> <Molecular weight>
100.15888214111328

> <name>
4-methylpentan-2-one

> <Outcome>
1

> <Molecule (RDKit Mol) (InChI Code)>
InChI=1S/C6H12O/c1-5(2)4-6(3)7/h5H,4H2,1-3H3

> <reference>
ECHA

> <molecule_form>
V

$$$$

  Mrv1812 01171911372D          

 41 42  0  0  0  0            999 V2000
    0.7145   -2.0625    0.0000 O   0  0  0  0  0  0  0  0  0  0  0  0
    0.7145   -1.2375    0.0000 C   0  0  0  0  0  0  0  0  0  0  0  0
    1.4289   -0.8250    0.0000 O   0  0  0  0  0  0  0  0  0  0  0  0
    2.1434   -1.2375    0.0000 C   0  0  0  0  0  0  0  0  0  0  0  0
    2.8579   -0.8250    0.0000 C   0  0  0  0  0  0  0  0  0  0  0  0
    3.5724   -1.2375    0.0000 O   0  0  0  0  0  0  0  0  0  0  0  0
    4.2868   -0.8250    0.0000 C   0  0  0  0  0  0  0  0  0  0  0  0
    5.0013   -1.2375    0.0000 C   0  0  0  0  0  0  0  0  0  0  0  0
    5.7158   -0.8250    0.0000 O   0  0  0  0  0  0  0  0  0  0  0  0
    6.4302   -1.2375    0.0000 C   0  0  0  0  0  0  0  0  0  0  0  0
    6.4302   -2.0625    0.0000 O   0  0  0  0  0  0  0  0  0  0  0  0
    7.1447   -0.8250    0.0000 C   0  0  0  0  0  0  0  0  0  0  0  0
    7.1447    0.0000    0.0000 C   0  0  0  0  0  0  0  0  0  0  0  0
    7.8592    0.4125    0.0000 C   0  0  0  0  0  0  0  0  0  0  0  0
    8.5737    0.0000    0.0000 C   0  0  0  0  0  0  0  0  0  0  0  0
    8.5737   -0.8250    0.0000 C   0  0  0  0  0  0  0  0  0  0  0  0
    7.8592   -1.2375    0.0000 C   0  0  0  0  0  0  0  0  0  0  0  0
    0.0000   -0.8250    0.0000 C   0  0  0  0  0  0  0  0  0  0  0  0
   -0.7145   -1.2375    0.0000 C   0  0  0  0  0  0  0  0  0  0  0  0
   -1.4289   -0.8250    0.0000 C   0  0  0  0  0  0  0  0  0  0  0  0
   -1.4289    0.0000    0.0000 C   0  0  0  0  0  0  0  0  0  0  0  0
   -0.7145    0.4125    0.0000 C   0  0  0  0  0  0  0  0  0  0  0  0
    0.0000    0.0000    0.0000 C   0  0  0  0  0  0  0  0  0  0  0  0
    1.7732   -1.9747    0.0000 H   0  0  0  0  0  0  0  0  0  0  0  0
    2.5137   -1.9747    0.0000 H   0  0  0  0  0  0  0  0  0  0  0  0
    3.2281   -0.0878    0.0000 H   0  0  0  0  0  0  0  0  0  0  0  0
    2.4876   -0.0878    0.0000 H   0  0  0  0  0  0  0  0  0  0  0  0
    4.6571   -0.0878    0.0000 H   0  0  0  0  0  0  0  0  0  0  0  0
    3.9166   -0.0878    0.0000 H   0  0  0  0  0  0  0  0  0  0  0  0
    4.6310   -1.9747    0.0000 H   0  0  0  0  0  0  0  0  0  0  0  0
    5.3716   -1.9747    0.0000 H   0  0  0  0  0  0  0  0  0  0  0  0
    6.4302    0.4125    0.0000 H   0  0  0  0  0  0  0  0  0  0  0  0
    7.8592    1.2375    0.0000 H   0  0  0  0  0  0  0  0  0  0  0  0
    9.2881    0.4125    0.0000 H   0  0  0  0  0  0  0  0  0  0  0  0
    9.2881   -1.2375    0.0000 H   0  0  0  0  0  0  0  0  0  0  0  0
    7.8592   -2.0625    0.0000 H   0  0  0  0  0  0  0  0  0  0  0  0
   -0.7145   -2.0625    0.0000 H   0  0  0  0  0  0  0  0  0  0  0  0
   -2.1434   -1.2375    0.0000 H   0  0  0  0  0  0  0  0  0  0  0  0
   -2.1434    0.4125    0.0000 H   0  0  0  0  0  0  0  0  0  0  0  0
   -0.7145    1.2375    0.0000 H   0  0  0  0  0  0  0  0  0  0  0  0
    0.7145    0.4125    0.0000 H   0  0  0  0  0  0  0  0  0  0  0  0
  1  2  2  0  0  0  0
  2  3  1  0  0  0  0
  3  4  1  0  0  0  0
  4  5  1  0  0  0  0
  5  6  1  0  0  0  0
  6  7  1  0  0  0  0
  7  8  1  0  0  0  0
  8  9  1  0  0  0  0
  9 10  1  0  0  0  0
 10 11  2  0  0  0  0
 10 12  1  0  0  0  0
 12 13  4  0  0  0  0
 13 14  4  0  0  0  0
 14 15  4  0  0  0  0
 15 16  4  0  0  0  0
 16 17  4  0  0  0  0
 12 17  4  0  0  0  0
  2 18  1  0  0  0  0
 18 19  4  0  0  0  0
 19 20  4  0  0  0  0
 20 21  4  0  0  0  0
 21 22  4  0  0  0  0
 22 23  4  0  0  0  0
 18 23  4  0  0  0  0
  4 24  1  0  0  0  0
  4 25  1  0  0  0  0
  5 26  1  0  0  0  0
  5 27  1  0  0  0  0
  7 28  1  0  0  0  0
  7 29  1  0  0  0  0
  8 30  1  0  0  0  0
  8 31  1  0  0  0  0
 13 32  1  0  0  0  0
 14 33  1  0  0  0  0
 15 34  1  0  0  0  0
 16 35  1  0  0  0  0
 17 36  1  0  0  0  0
 19 37  1  0  0  0  0
 20 38  1  0  0  0  0
 21 39  1  0  0  0  0
 22 40  1  0  0  0  0
 23 41  1  0  0  0  0
M  END
> <id>
1404

> <casrn>
120-55-8

> <smiles (First)>


> <Molecular weight>
314.33251953125

> <name>
2-[2-(benzoyloxy)ethoxy]ethyl benzoate

> <Outcome>
0

> <Molecule (RDKit Mol) (InChI Code)>
InChI=1S/C18H18O5/c19-17(15-7-3-1-4-8-15)22-13-11-21-12-14-23-18(20)16-9-5-2-6-10-16/h1-10H,11-14H2

> <reference>
ECHA

> <molecule_form>
A

$$$$

  Mrv1812 01171911372D          

 28 28  0  0  0  0            999 V2000
   -0.6060    3.7821    0.0000 C   0  0  0  0  0  0  0  0  0  0  0  0
    0.1085    3.3696    0.0000 C   0  0  0  0  0  0  0  0  0  0  0  0
    0.8229    3.7821    0.0000 C   0  0  0  0  0  0  0  0  0  0  0  0
    0.1085    2.5446    0.0000 C   0  0  0  0  0  0  0  0  0  0  0  0
   -0.6060    2.1321    0.0000 O   0  0  0  0  0  0  0  0  0  0  0  0
    0.8229    2.1321    0.0000 O   0  0  0  0  0  0  0  0  0  0  0  0
    0.8229    1.3071    0.0000 C   0  0  0  0  0  0  0  0  0  0  0  0
    1.5374    0.8946    0.0000 C   0  0  0  0  0  0  0  0  0  0  0  0
    1.5374    0.0696    0.0000 C   0  0  0  0  0  0  0  0  0  0  0  0
    0.8229   -0.3429    0.0000 C   0  0  0  0  0  0  0  0  0  0  0  0
    0.1085    0.0696    0.0000 C   0  0  0  0  0  0  0  0  0  0  0  0
    0.1085    0.8946    0.0000 C   0  0  0  0  0  0  0  0  0  0  0  0
   -0.6060    4.6071    0.0000 H   0  0  0  0  0  0  0  0  0  0  0  0
   -1.3205    3.3696    0.0000 H   0  0  0  0  0  0  0  0  0  0  0  0
    1.2354    3.0676    0.0000 H   0  0  0  0  0  0  0  0  0  0  0  0
    1.5374    4.1946    0.0000 H   0  0  0  0  0  0  0  0  0  0  0  0
    0.4104    4.4966    0.0000 H   0  0  0  0  0  0  0  0  0  0  0  0
    0.1085    1.7196    0.0000 H   0  0  0  0  0  0  0  0  0  0  0  0
    2.3610    0.9426    0.0000 H   0  0  0  0  0  0  0  0  0  0  0  0
    1.9907    1.5839    0.0000 H   0  0  0  0  0  0  0  0  0  0  0  0
    1.9907   -0.6197    0.0000 H   0  0  0  0  0  0  0  0  0  0  0  0
    2.3610    0.0216    0.0000 H   0  0  0  0  0  0  0  0  0  0  0  0
    0.4527   -1.0801    0.0000 H   0  0  0  0  0  0  0  0  0  0  0  0
    1.1932   -1.0801    0.0000 H   0  0  0  0  0  0  0  0  0  0  0  0
   -0.7151    0.0216    0.0000 H   0  0  0  0  0  0  0  0  0  0  0  0
   -0.3449   -0.6197    0.0000 H   0  0  0  0  0  0  0  0  0  0  0  0
   -0.6668    1.1768    0.0000 H   0  0  0  0  0  0  0  0  0  0  0  0
   -0.6668    0.6124    0.0000 H   0  0  0  0  0  0  0  0  0  0  0  0
  1  2  2  0  0  0  0
  2  3  1  0  0  0  0
  2  4  1  0  0  0  0
  4  5  2  0  0  0  0
  4  6  1  0  0  0  0
  6  7  1  0  0  0  0
  7  8  1  0  0  0  0
  8  9  1  0  0  0  0
  9 10  1  0  0  0  0
 10 11  1  0  0  0  0
 11 12  1  0  0  0  0
  7 12  1  0  0  0  0
  1 13  1  0  0  0  0
  1 14  1  0  0  0  0
  3 15  1  0  0  0  0
  3 16  1  0  0  0  0
  3 17  1  0  0  0  0
  7 18  1  0  0  0  0
  8 19  1  0  0  0  0
  8 20  1  0  0  0  0
  9 21  1  0  0  0  0
  9 22  1  0  0  0  0
 10 23  1  0  0  0  0
 10 24  1  0  0  0  0
 11 25  1  0  0  0  0
 11 26  1  0  0  0  0
 12 27  1  0  0  0  0
 12 28  1  0  0  0  0
M  END
> <id>
2837

> <casrn>
101-43-9

> <smiles (First)>


> <Molecular weight>
168.23284912109375

> <name>
cyclohexyl 2-methylprop-2-enoate

> <Outcome>
0

> <Molecule (RDKit Mol) (InChI Code)>
InChI=1S/C10H16O2/c1-8(2)10(11)12-9-6-4-3-5-7-9/h9H,1,3-7H2,2H3

> <reference>
ECHA

> <molecule_form>
V

$$$$

  Mrv1812 01171911372D          

  6  5  0  0  0  0            999 V2000
    0.8250    0.0000    0.0000 C   0  0  0  0  0  0  0  0  0  0  0  0
   -0.0000    0.0000    0.0000 O   0  0  0  0  0  0  0  0  0  0  0  0
    0.8250   -0.8250    0.0000 H   0  0  0  0  0  0  0  0  0  0  0  0
    1.6500   -0.0000    0.0000 H   0  0  0  0  0  0  0  0  0  0  0  0
    0.8250    0.8250    0.0000 H   0  0  0  0  0  0  0  0  0  0  0  0
   -0.4125    0.7145    0.0000 H   0  0  0  0  0  0  0  0  0  0  0  0
  1  2  1  0  0  0  0
  1  3  1  0  0  0  0
  1  4  1  0  0  0  0
  1  5  1  0  0  0  0
  2  6  1  0  0  0  0
M  END
> <id>
3436; 3398

> <casrn>
67-56-1

> <smiles (First)>


> <Molecular weight>
31.537891387939453

> <name>
methanol

> <Outcome>
0

> <Molecule (RDKit Mol) (InChI Code)>
InChI=1S/CH4O/c1-2/h2H,1H3

> <reference>
ECHA

> <molecule_form>
V

$$$$

  Mrv1812 01171911372D          

 78 77  0  0  0  0            999 V2000
   12.1836    7.8596    0.0000 C   0  0  0  0  0  0  0  0  0  0  0  0
   12.8980    8.2721    0.0000 C   0  0  0  0  0  0  0  0  0  0  0  0
   13.6125    7.8596    0.0000 C   0  0  0  0  0  0  0  0  0  0  0  0
   14.3270    8.2721    0.0000 C   0  0  0  0  0  0  0  0  0  0  0  0
   15.0414    7.8596    0.0000 C   0  0  0  0  0  0  0  0  0  0  0  0
   15.7559    8.2721    0.0000 C   0  0  0  0  0  0  0  0  0  0  0  0
   16.4704    7.8596    0.0000 C   0  0  0  0  0  0  0  0  0  0  0  0
   17.1849    8.2721    0.0000 C   0  0  0  0  0  0  0  0  0  0  0  0
   17.8993    7.8596    0.0000 C   0  0  0  0  0  0  0  0  0  0  0  0
   18.6138    8.2721    0.0000 C   0  0  0  0  0  0  0  0  0  0  0  0
   19.3283    7.8596    0.0000 C   0  0  0  0  0  0  0  0  0  0  0  0
   20.0427    8.2721    0.0000 C   0  0  0  0  0  0  0  0  0  0  0  0
   20.7572    7.8596    0.0000 C   0  0  0  0  0  0  0  0  0  0  0  0
   21.4717    8.2721    0.0000 C   0  0  0  0  0  0  0  0  0  0  0  0
   22.1862    7.8596    0.0000 C   0  0  0  0  0  0  0  0  0  0  0  0
   22.9006    8.2721    0.0000 C   0  0  0  0  0  0  0  0  0  0  0  0
   23.6151    7.8596    0.0000 C   0  0  0  0  0  0  0  0  0  0  0  0
   24.3296    8.2721    0.0000 C   0  0  0  0  0  0  0  0  0  0  0  0
   25.0440    7.8596    0.0000 C   0  0  0  0  0  0  0  0  0  0  0  0
   25.7585    8.2721    0.0000 C   0  0  0  0  0  0  0  0  0  0  0  0
   26.4730    7.8596    0.0000 C   0  0  0  0  0  0  0  0  0  0  0  0
   27.1874    8.2721    0.0000 C   0  0  0  0  0  0  0  0  0  0  0  0
   27.9019    7.8596    0.0000 C   0  0  0  0  0  0  0  0  0  0  0  0
   28.6164    8.2721    0.0000 C   0  0  0  0  0  0  0  0  0  0  0  0
   29.3309    7.8596    0.0000 C   0  0  0  0  0  0  0  0  0  0  0  0
   30.0453    8.2721    0.0000 C   0  0  0  0  0  0  0  0  0  0  0  0
   11.4691    8.2721    0.0000 H   0  0  0  0  0  0  0  0  0  0  0  0
   12.1836    7.0346    0.0000 H   0  0  0  0  0  0  0  0  0  0  0  0
   12.8980    9.0971    0.0000 H   0  0  0  0  0  0  0  0  0  0  0  0
   13.2422    7.1224    0.0000 H   0  0  0  0  0  0  0  0  0  0  0  0
   13.9828    7.1224    0.0000 H   0  0  0  0  0  0  0  0  0  0  0  0
   14.6972    9.0094    0.0000 H   0  0  0  0  0  0  0  0  0  0  0  0
   13.9567    9.0094    0.0000 H   0  0  0  0  0  0  0  0  0  0  0  0
   14.6712    7.1224    0.0000 H   0  0  0  0  0  0  0  0  0  0  0  0
   15.4117    7.1224    0.0000 H   0  0  0  0  0  0  0  0  0  0  0  0
   16.1262    9.0094    0.0000 H   0  0  0  0  0  0  0  0  0  0  0  0
   15.3857    9.0094    0.0000 H   0  0  0  0  0  0  0  0  0  0  0  0
   16.1001    7.1224    0.0000 H   0  0  0  0  0  0  0  0  0  0  0  0
   16.8406    7.1224    0.0000 H   0  0  0  0  0  0  0  0  0  0  0  0
   17.5551    9.0094    0.0000 H   0  0  0  0  0  0  0  0  0  0  0  0
   16.8146    9.0094    0.0000 H   0  0  0  0  0  0  0  0  0  0  0  0
   17.5291    7.1224    0.0000 H   0  0  0  0  0  0  0  0  0  0  0  0
   18.2696    7.1224    0.0000 H   0  0  0  0  0  0  0  0  0  0  0  0
   18.9841    9.0094    0.0000 H   0  0  0  0  0  0  0  0  0  0  0  0
   18.2435    9.0094    0.0000 H   0  0  0  0  0  0  0  0  0  0  0  0
   18.9580    7.1224    0.0000 H   0  0  0  0  0  0  0  0  0  0  0  0
   19.6985    7.1224    0.0000 H   0  0  0  0  0  0  0  0  0  0  0  0
   20.4130    9.0094    0.0000 H   0  0  0  0  0  0  0  0  0  0  0  0
   19.6725    9.0094    0.0000 H   0  0  0  0  0  0  0  0  0  0  0  0
   20.3870    7.1224    0.0000 H   0  0  0  0  0  0  0  0  0  0  0  0
   21.1275    7.1224    0.0000 H   0  0  0  0  0  0  0  0  0  0  0  0
   21.8419    9.0094    0.0000 H   0  0  0  0  0  0  0  0  0  0  0  0
   21.1014    9.0094    0.0000 H   0  0  0  0  0  0  0  0  0  0  0  0
   21.8159    7.1224    0.0000 H   0  0  0  0  0  0  0  0  0  0  0  0
   22.5564    7.1224    0.0000 H   0  0  0  0  0  0  0  0  0  0  0  0
   23.2709    9.0094    0.0000 H   0  0  0  0  0  0  0  0  0  0  0  0
   22.5304    9.0094    0.0000 H   0  0  0  0  0  0  0  0  0  0  0  0
   23.2448    7.1224    0.0000 H   0  0  0  0  0  0  0  0  0  0  0  0
   23.9854    7.1224    0.0000 H   0  0  0  0  0  0  0  0  0  0  0  0
   24.6998    9.0094    0.0000 H   0  0  0  0  0  0  0  0  0  0  0  0
   23.9593    9.0094    0.0000 H   0  0  0  0  0  0  0  0  0  0  0  0
   24.6738    7.1224    0.0000 H   0  0  0  0  0  0  0  0  0  0  0  0
   25.4143    7.1224    0.0000 H   0  0  0  0  0  0  0  0  0  0  0  0
   26.1288    9.0094    0.0000 H   0  0  0  0  0  0  0  0  0  0  0  0
   25.3882    9.0094    0.0000 H   0  0  0  0  0  0  0  0  0  0  0  0
   26.1027    7.1224    0.0000 H   0  0  0  0  0  0  0  0  0  0  0  0
   26.8432    7.1224    0.0000 H   0  0  0  0  0  0  0  0  0  0  0  0
   27.5577    9.0094    0.0000 H   0  0  0  0  0  0  0  0  0  0  0  0
   26.8172    9.0094    0.0000 H   0  0  0  0  0  0  0  0  0  0  0  0
   27.5317    7.1224    0.0000 H   0  0  0  0  0  0  0  0  0  0  0  0
   28.2722    7.1224    0.0000 H   0  0  0  0  0  0  0  0  0  0  0  0
   28.9867    9.0094    0.0000 H   0  0  0  0  0  0  0  0  0  0  0  0
   28.2461    9.0094    0.0000 H   0  0  0  0  0  0  0  0  0  0  0  0
   28.9606    7.1224    0.0000 H   0  0  0  0  0  0  0  0  0  0  0  0
   29.7011    7.1224    0.0000 H   0  0  0  0  0  0  0  0  0  0  0  0
   30.4578    7.5577    0.0000 H   0  0  0  0  0  0  0  0  0  0  0  0
   30.7598    8.6846    0.0000 H   0  0  0  0  0  0  0  0  0  0  0  0
   29.6328    8.9866    0.0000 H   0  0  0  0  0  0  0  0  0  0  0  0
  1  2  2  0  0  0  0
  2  3  1  0  0  0  0
  3  4  1  0  0  0  0
  4  5  1  0  0  0  0
  5  6  1  0  0  0  0
  6  7  1  0  0  0  0
  7  8  1  0  0  0  0
  8  9  1  0  0  0  0
  9 10  1  0  0  0  0
 10 11  1  0  0  0  0
 11 12  1  0  0  0  0
 12 13  1  0  0  0  0
 13 14  1  0  0  0  0
 14 15  1  0  0  0  0
 15 16  1  0  0  0  0
 16 17  1  0  0  0  0
 17 18  1  0  0  0  0
 18 19  1  0  0  0  0
 19 20  1  0  0  0  0
 20 21  1  0  0  0  0
 21 22  1  0  0  0  0
 22 23  1  0  0  0  0
 23 24  1  0  0  0  0
 24 25  1  0  0  0  0
 25 26  1  0  0  0  0
  1 27  1  0  0  0  0
  1 28  1  0  0  0  0
  2 29  1  0  0  0  0
  3 30  1  0  0  0  0
  3 31  1  0  0  0  0
  4 32  1  0  0  0  0
  4 33  1  0  0  0  0
  5 34  1  0  0  0  0
  5 35  1  0  0  0  0
  6 36  1  0  0  0  0
  6 37  1  0  0  0  0
  7 38  1  0  0  0  0
  7 39  1  0  0  0  0
  8 40  1  0  0  0  0
  8 41  1  0  0  0  0
  9 42  1  0  0  0  0
  9 43  1  0  0  0  0
 10 44  1  0  0  0  0
 10 45  1  0  0  0  0
 11 46  1  0  0  0  0
 11 47  1  0  0  0  0
 12 48  1  0  0  0  0
 12 49  1  0  0  0  0
 13 50  1  0  0  0  0
 13 51  1  0  0  0  0
 14 52  1  0  0  0  0
 14 53  1  0  0  0  0
 15 54  1  0  0  0  0
 15 55  1  0  0  0  0
 16 56  1  0  0  0  0
 16 57  1  0  0  0  0
 17 58  1  0  0  0  0
 17 59  1  0  0  0  0
 18 60  1  0  0  0  0
 18 61  1  0  0  0  0
 19 62  1  0  0  0  0
 19 63  1  0  0  0  0
 20 64  1  0  0  0  0
 20 65  1  0  0  0  0
 21 66  1  0  0  0  0
 21 67  1  0  0  0  0
 22 68  1  0  0  0  0
 22 69  1  0  0  0  0
 23 70  1  0  0  0  0
 23 71  1  0  0  0  0
 24 72  1  0  0  0  0
 24 73  1  0  0  0  0
 25 74  1  0  0  0  0
 25 75  1  0  0  0  0
 26 76  1  0  0  0  0
 26 77  1  0  0  0  0
 26 78  1  0  0  0  0
M  END
> <id>
1970; 1959

> <casrn>
93924-11-9

> <smiles (First)>


> <Molecular weight>
364.69110107421875

> <name>
Alkenes, C24-28 ??-

> <Outcome>
0

> <Molecule (RDKit Mol) (InChI Code)>
InChI=1S/C26H52/c1-3-5-7-9-11-13-15-17-19-21-23-25-26-24-22-20-18-16-14-12-10-8-6-4-2/h3H,1,4-26H2,2H3

> <reference>
ECHA

> <molecule_form>
V

$$$$

  Mrv1812 01171911372D          

 26 25  0  0  0  0            999 V2000
    2.9980    2.5587    0.0000 N   0  0  0  0  0  0  0  0  0  0  0  0
    3.7125    2.1462    0.0000 C   0  0  0  0  0  0  0  0  0  0  0  0
    4.4270    2.5587    0.0000 C   0  0  0  0  0  0  0  0  0  0  0  0
    5.1414    2.1462    0.0000 C   0  0  0  0  0  0  0  0  0  0  0  0
    5.8559    2.5587    0.0000 N   0  0  0  0  0  0  0  0  0  0  0  0
    6.5704    2.1462    0.0000 C   0  0  0  0  0  0  0  0  0  0  0  0
    7.2849    2.5587    0.0000 C   0  0  0  0  0  0  0  0  0  0  0  0
    7.9993    2.1462    0.0000 C   0  0  0  0  0  0  0  0  0  0  0  0
    8.7138    2.5587    0.0000 N   0  0  0  0  0  0  0  0  0  0  0  0
    2.9980    3.3837    0.0000 H   0  0  0  0  0  0  0  0  0  0  0  0
    2.2836    2.1462    0.0000 H   0  0  0  0  0  0  0  0  0  0  0  0
    3.3422    1.4089    0.0000 H   0  0  0  0  0  0  0  0  0  0  0  0
    4.0828    1.4089    0.0000 H   0  0  0  0  0  0  0  0  0  0  0  0
    4.7972    3.2959    0.0000 H   0  0  0  0  0  0  0  0  0  0  0  0
    4.0567    3.2959    0.0000 H   0  0  0  0  0  0  0  0  0  0  0  0
    4.7712    1.4089    0.0000 H   0  0  0  0  0  0  0  0  0  0  0  0
    5.5117    1.4089    0.0000 H   0  0  0  0  0  0  0  0  0  0  0  0
    5.8559    3.3837    0.0000 H   0  0  0  0  0  0  0  0  0  0  0  0
    6.2001    1.4089    0.0000 H   0  0  0  0  0  0  0  0  0  0  0  0
    6.9406    1.4089    0.0000 H   0  0  0  0  0  0  0  0  0  0  0  0
    7.6551    3.2959    0.0000 H   0  0  0  0  0  0  0  0  0  0  0  0
    6.9146    3.2959    0.0000 H   0  0  0  0  0  0  0  0  0  0  0  0
    7.6291    1.4089    0.0000 H   0  0  0  0  0  0  0  0  0  0  0  0
    8.3696    1.4089    0.0000 H   0  0  0  0  0  0  0  0  0  0  0  0
    9.4283    2.1462    0.0000 H   0  0  0  0  0  0  0  0  0  0  0  0
    8.7138    3.3837    0.0000 H   0  0  0  0  0  0  0  0  0  0  0  0
  1  2  1  0  0  0  0
  2  3  1  0  0  0  0
  3  4  1  0  0  0  0
  4  5  1  0  0  0  0
  5  6  1  0  0  0  0
  6  7  1  0  0  0  0
  7  8  1  0  0  0  0
  8  9  1  0  0  0  0
  1 10  1  0  0  0  0
  1 11  1  0  0  0  0
  2 12  1  0  0  0  0
  2 13  1  0  0  0  0
  3 14  1  0  0  0  0
  3 15  1  0  0  0  0
  4 16  1  0  0  0  0
  4 17  1  0  0  0  0
  5 18  1  0  0  0  0
  6 19  1  0  0  0  0
  6 20  1  0  0  0  0
  7 21  1  0  0  0  0
  7 22  1  0  0  0  0
  8 23  1  0  0  0  0
  8 24  1  0  0  0  0
  9 25  1  0  0  0  0
  9 26  1  0  0  0  0
M  END
> <id>
2655

> <casrn>
56-18-8

> <smiles (First)>


> <Molecular weight>
131.2192840576172

> <name>
bis(3-aminopropyl)amine

> <Outcome>
1

> <Molecule (RDKit Mol) (InChI Code)>
InChI=1S/C6H17N3/c7-3-1-5-9-6-2-4-8/h9H,1-8H2

> <reference>
ECHA

> <molecule_form>
A

$$$$

  Mrv1812 01171911372D          

 27 26  0  0  0  0            999 V2000
   -0.6105   -3.2206    0.0000 C   0  0  0  0  0  0  0  0  0  0  0  0
   -0.6105   -2.3956    0.0000 C   0  0  0  0  0  0  0  0  0  0  0  0
   -1.3250   -1.9831    0.0000 C   0  0  0  0  0  0  0  0  0  0  0  0
    0.1040   -1.9831    0.0000 C   0  0  0  0  0  0  0  0  0  0  0  0
    0.8184   -2.3956    0.0000 O   0  0  0  0  0  0  0  0  0  0  0  0
    0.1040   -1.1581    0.0000 O   0  0  0  0  0  0  0  0  0  0  0  0
    0.8184   -0.7456    0.0000 O   0  0  0  0  0  0  0  0  0  0  0  0
    0.8184    0.0794    0.0000 C   0  0  0  0  0  0  0  0  0  0  0  0
    0.8184    0.9044    0.0000 C   0  0  0  0  0  0  0  0  0  0  0  0
    1.6434    0.0794    0.0000 C   0  0  0  0  0  0  0  0  0  0  0  0
   -0.0066    0.0794    0.0000 C   0  0  0  0  0  0  0  0  0  0  0  0
   -1.4355   -3.2206    0.0000 H   0  0  0  0  0  0  0  0  0  0  0  0
   -0.6105   -4.0456    0.0000 H   0  0  0  0  0  0  0  0  0  0  0  0
    0.2145   -3.2206    0.0000 H   0  0  0  0  0  0  0  0  0  0  0  0
   -1.3250   -2.8081    0.0000 H   0  0  0  0  0  0  0  0  0  0  0  0
   -0.7416   -1.3997    0.0000 H   0  0  0  0  0  0  0  0  0  0  0  0
   -1.7375   -1.2686    0.0000 H   0  0  0  0  0  0  0  0  0  0  0  0
   -2.1219   -2.1966    0.0000 H   0  0  0  0  0  0  0  0  0  0  0  0
    1.6434    0.9044    0.0000 H   0  0  0  0  0  0  0  0  0  0  0  0
    0.8184    1.7294    0.0000 H   0  0  0  0  0  0  0  0  0  0  0  0
   -0.0066    0.9044    0.0000 H   0  0  0  0  0  0  0  0  0  0  0  0
    1.3277   -0.6828    0.0000 H   0  0  0  0  0  0  0  0  0  0  0  0
    2.2268   -0.5039    0.0000 H   0  0  0  0  0  0  0  0  0  0  0  0
    2.4056    0.3951    0.0000 H   0  0  0  0  0  0  0  0  0  0  0  0
   -0.7688    0.3951    0.0000 H   0  0  0  0  0  0  0  0  0  0  0  0
   -0.5899   -0.5039    0.0000 H   0  0  0  0  0  0  0  0  0  0  0  0
    0.3092   -0.6828    0.0000 H   0  0  0  0  0  0  0  0  0  0  0  0
  1  2  1  0  0  0  0
  2  3  1  0  0  0  0
  2  4  1  0  0  0  0
  4  5  2  0  0  0  0
  4  6  1  0  0  0  0
  6  7  1  0  0  0  0
  7  8  1  0  0  0  0
  8  9  1  0  0  0  0
  8 10  1  0  0  0  0
  8 11  1  0  0  0  0
  1 12  1  0  0  0  0
  1 13  1  0  0  0  0
  1 14  1  0  0  0  0
  2 15  1  0  0  0  0
  3 16  1  0  0  0  0
  3 17  1  0  0  0  0
  3 18  1  0  0  0  0
  9 19  1  0  0  0  0
  9 20  1  0  0  0  0
  9 21  1  0  0  0  0
 10 22  1  0  0  0  0
 10 23  1  0  0  0  0
 10 24  1  0  0  0  0
 11 25  1  0  0  0  0
 11 26  1  0  0  0  0
 11 27  1  0  0  0  0
M  END
> <id>
3914

> <casrn>
109-13-7

> <smiles (First)>


> <Molecular weight>
160.21084594726562

> <name>
tert-butyl 2-methylpropaneperoxoate

> <Outcome>
1

> <Molecule (RDKit Mol) (InChI Code)>
InChI=1S/C8H16O3/c1-6(2)7(9)10-11-8(3,4)5/h6H,1-5H3

> <reference>
ECHA

> <molecule_form>
V

$$$$

  Mrv1812 01171911372D          

 12 11  0  0  0  0            999 V2000
   -0.6039   -2.4750    0.0000 F   0  0  0  0  0  0  0  0  0  0  0  0
    0.1105   -2.0625    0.0000 C   0  0  0  0  0  0  0  0  0  0  0  0
    0.5230   -2.7770    0.0000 F   0  0  0  0  0  0  0  0  0  0  0  0
   -0.3020   -1.3480    0.0000 F   0  0  0  0  0  0  0  0  0  0  0  0
    0.8250   -1.6500    0.0000 O   0  0  0  0  0  0  0  0  0  0  0  0
    0.8250   -0.8250    0.0000 C   0  0  0  0  0  0  0  0  0  0  0  0
    1.6500   -0.8250    0.0000 F   0  0  0  0  0  0  0  0  0  0  0  0
   -0.0000   -0.8250    0.0000 Cl  0  0  0  0  0  0  0  0  0  0  0  0
    0.8250   -0.0000    0.0000 C   0  0  0  0  0  0  0  0  0  0  0  0
    0.8250    0.8250    0.0000 F   0  0  0  0  0  0  0  0  0  0  0  0
    1.6500   -0.0000    0.0000 F   0  0  0  0  0  0  0  0  0  0  0  0
   -0.0000   -0.0000    0.0000 Cl  0  0  0  0  0  0  0  0  0  0  0  0
  1  2  1  0  0  0  0
  2  3  1  0  0  0  0
  2  4  1  0  0  0  0
  2  5  1  0  0  0  0
  5  6  1  0  0  0  0
  6  7  1  0  0  0  0
  6  8  1  0  0  0  0
  6  9  1  0  0  0  0
  9 10  1  0  0  0  0
  9 11  1  0  0  0  0
  9 12  1  0  0  0  0
M  END
> <id>
926

> <casrn>
2356-53-8

> <smiles (First)>


> <Molecular weight>
236.92791748046875

> <name>
1,2-dichloro-1,1,2-trifluoro-2-(trifluoromethoxy)ethane

> <Outcome>
0

> <Molecule (RDKit Mol) (InChI Code)>
InChI=1S/C3Cl2F6O/c4-1(6,7)2(5,8)12-3(9,10)11

> <reference>
ECHA

> <molecule_form>
V

$$$$

  Mrv1812 01171911372D          

 12 11  0  0  0  0            999 V2000
    2.0625   -0.7145    0.0000 N   0  0  0  0  0  0  0  0  0  0  0  0
    1.2375   -0.7145    0.0000 C   0  0  0  0  0  0  0  0  0  0  0  0
    0.8250   -0.0000    0.0000 C   0  0  0  0  0  0  0  0  0  0  0  0
    0.0000   -0.0000    0.0000 N   0  0  0  0  0  0  0  0  0  0  0  0
    2.4750   -1.4290    0.0000 H   0  0  0  0  0  0  0  0  0  0  0  0
    2.4750   -0.0000    0.0000 H   0  0  0  0  0  0  0  0  0  0  0  0
    0.5482   -1.1678    0.0000 H   0  0  0  0  0  0  0  0  0  0  0  0
    1.1895   -1.5381    0.0000 H   0  0  0  0  0  0  0  0  0  0  0  0
    1.5143    0.4533    0.0000 H   0  0  0  0  0  0  0  0  0  0  0  0
    0.8730    0.8236    0.0000 H   0  0  0  0  0  0  0  0  0  0  0  0
   -0.4125    0.7145    0.0000 H   0  0  0  0  0  0  0  0  0  0  0  0
   -0.4125   -0.7145    0.0000 H   0  0  0  0  0  0  0  0  0  0  0  0
  1  2  1  0  0  0  0
  2  3  1  0  0  0  0
  3  4  1  0  0  0  0
  1  5  1  0  0  0  0
  1  6  1  0  0  0  0
  2  7  1  0  0  0  0
  2  8  1  0  0  0  0
  3  9  1  0  0  0  0
  3 10  1  0  0  0  0
  4 11  1  0  0  0  0
  4 12  1  0  0  0  0
M  END
> <id>
3113

> <casrn>
107-15-3

> <smiles (First)>


> <Molecular weight>
60.09832000732422

> <name>
ethane-1,2-diamine

> <Outcome>
1

> <Molecule (RDKit Mol) (InChI Code)>
InChI=1S/C2H8N2/c3-1-2-4/h1-4H2

> <reference>
ECHA

> <molecule_form>
V

$$$$

  Mrv1812 01171911372D          

 25 24  0  0  0  0            999 V2000
    1.2939   -4.7369    0.0000 C   0  0  0  0  0  0  0  0  0  0  0  0
    1.2939   -3.9119    0.0000 C   0  0  0  0  0  0  0  0  0  0  0  0
    0.5795   -3.4994    0.0000 O   0  0  0  0  0  0  0  0  0  0  0  0
    0.5795   -2.6744    0.0000 Si  0  0  0  0  0  0  0  0  0  0  0  0
   -0.1350   -2.2619    0.0000 O   0  0  0  0  0  0  0  0  0  0  0  0
   -0.1350   -1.4369    0.0000 C   0  0  0  0  0  0  0  0  0  0  0  0
   -0.8495   -1.0244    0.0000 C   0  0  0  0  0  0  0  0  0  0  0  0
    1.2939   -2.2619    0.0000 O   0  0  0  0  0  0  0  0  0  0  0  0
    1.2939   -1.4369    0.0000 C   0  0  0  0  0  0  0  0  0  0  0  0
    2.0084   -1.0244    0.0000 C   0  0  0  0  0  0  0  0  0  0  0  0
    0.4689   -4.7369    0.0000 H   0  0  0  0  0  0  0  0  0  0  0  0
    1.2939   -5.5619    0.0000 H   0  0  0  0  0  0  0  0  0  0  0  0
    2.1189   -4.7369    0.0000 H   0  0  0  0  0  0  0  0  0  0  0  0
    2.1175   -3.8639    0.0000 H   0  0  0  0  0  0  0  0  0  0  0  0
    1.7473   -3.2226    0.0000 H   0  0  0  0  0  0  0  0  0  0  0  0
    0.6886   -1.3889    0.0000 H   0  0  0  0  0  0  0  0  0  0  0  0
    0.3183   -0.7476    0.0000 H   0  0  0  0  0  0  0  0  0  0  0  0
   -0.4370   -0.3099    0.0000 H   0  0  0  0  0  0  0  0  0  0  0  0
   -1.5639   -0.6119    0.0000 H   0  0  0  0  0  0  0  0  0  0  0  0
   -1.2620   -1.7389    0.0000 H   0  0  0  0  0  0  0  0  0  0  0  0
    1.1121   -0.6322    0.0000 H   0  0  0  0  0  0  0  0  0  0  0  0
    2.0084   -1.8494    0.0000 H   0  0  0  0  0  0  0  0  0  0  0  0
    2.8053   -1.2379    0.0000 H   0  0  0  0  0  0  0  0  0  0  0  0
    2.4209   -0.3099    0.0000 H   0  0  0  0  0  0  0  0  0  0  0  0
    1.4250   -0.4410    0.0000 H   0  0  0  0  0  0  0  0  0  0  0  0
  1  2  1  0  0  0  0
  2  3  1  0  0  0  0
  3  4  1  0  0  0  0
  4  5  1  0  0  0  0
  5  6  1  0  0  0  0
  6  7  1  0  0  0  0
  4  8  1  0  0  0  0
  8  9  1  0  0  0  0
  9 10  1  0  0  0  0
  1 11  1  0  0  0  0
  1 12  1  0  0  0  0
  1 13  1  0  0  0  0
  2 14  1  0  0  0  0
  2 15  1  0  0  0  0
  6 16  1  0  0  0  0
  6 17  1  0  0  0  0
  7 18  1  0  0  0  0
  7 19  1  0  0  0  0
  7 20  1  0  0  0  0
  9 21  1  0  0  0  0
  9 22  1  0  0  0  0
 10 23  1  0  0  0  0
 10 24  1  0  0  0  0
 10 25  1  0  0  0  0
M  RAD  1   4   2
M  END
> <id>
4063

> <casrn>
998-30-1

> <smiles (First)>


> <Molecular weight>
163.26699829101562

> <name>
triethoxysilane

> <Outcome>
1

> <Molecule (RDKit Mol) (InChI Code)>
InChI=1S/C6H15O3Si/c1-4-7-10(8-5-2)9-6-3/h4-6H2,1-3H3

> <reference>
ECHA

> <molecule_form>
V

$$$$

  Mrv1812 01171911372D          

 36 36  0  0  0  0            999 V2000
   -1.4156    6.6018    0.0000 C   0  0  0  0  0  0  0  0  0  0  0  0
   -1.4156    5.7768    0.0000 C   0  0  0  0  0  0  0  0  0  0  0  0
   -0.7011    5.3643    0.0000 C   0  0  0  0  0  0  0  0  0  0  0  0
   -0.7011    4.5393    0.0000 O   0  0  0  0  0  0  0  0  0  0  0  0
    0.0133    4.1268    0.0000 C   0  0  0  0  0  0  0  0  0  0  0  0
    0.7278    4.5393    0.0000 O   0  0  0  0  0  0  0  0  0  0  0  0
    0.0133    3.3018    0.0000 C   0  0  0  0  0  0  0  0  0  0  0  0
   -0.8117    3.3018    0.0000 C   0  0  0  0  0  0  0  0  0  0  0  0
    0.8383    3.3018    0.0000 C   0  0  0  0  0  0  0  0  0  0  0  0
    0.0133    2.4768    0.0000 O   0  0  0  0  0  0  0  0  0  0  0  0
    0.7278    2.0643    0.0000 C   0  0  0  0  0  0  0  0  0  0  0  0
    1.4423    2.4768    0.0000 O   0  0  0  0  0  0  0  0  0  0  0  0
    0.7278    1.2393    0.0000 C   0  0  0  0  0  0  0  0  0  0  0  0
    1.4423    0.8268    0.0000 C   0  0  0  0  0  0  0  0  0  0  0  0
    1.4423    0.0018    0.0000 C   0  0  0  0  0  0  0  0  0  0  0  0
    2.1567   -0.4107    0.0000 N   0  0  0  0  0  0  0  0  0  0  0  0
    2.8712    0.0018    0.0000 C   0  0  0  0  0  0  0  0  0  0  0  0
    3.5857    0.4143    0.0000 O   0  0  0  0  0  0  0  0  0  0  0  0
    0.7278   -0.4107    0.0000 C   0  0  0  0  0  0  0  0  0  0  0  0
    0.0133    0.0018    0.0000 C   0  0  0  0  0  0  0  0  0  0  0  0
    0.0133    0.8268    0.0000 C   0  0  0  0  0  0  0  0  0  0  0  0
   -0.7011    1.2393    0.0000 Cl  0  0  0  0  0  0  0  0  0  0  0  0
   -0.7011    7.0143    0.0000 H   0  0  0  0  0  0  0  0  0  0  0  0
   -2.1301    7.0143    0.0000 H   0  0  0  0  0  0  0  0  0  0  0  0
   -2.1301    5.3643    0.0000 H   0  0  0  0  0  0  0  0  0  0  0  0
    0.1225    5.4122    0.0000 H   0  0  0  0  0  0  0  0  0  0  0  0
   -0.2478    6.0536    0.0000 H   0  0  0  0  0  0  0  0  0  0  0  0
   -0.8117    4.1268    0.0000 H   0  0  0  0  0  0  0  0  0  0  0  0
   -1.6367    3.3018    0.0000 H   0  0  0  0  0  0  0  0  0  0  0  0
   -0.8117    2.4768    0.0000 H   0  0  0  0  0  0  0  0  0  0  0  0
    0.8383    2.4768    0.0000 H   0  0  0  0  0  0  0  0  0  0  0  0
    1.6633    3.3018    0.0000 H   0  0  0  0  0  0  0  0  0  0  0  0
    0.8383    4.1268    0.0000 H   0  0  0  0  0  0  0  0  0  0  0  0
    2.1567    1.2393    0.0000 H   0  0  0  0  0  0  0  0  0  0  0  0
    0.7278   -1.2357    0.0000 H   0  0  0  0  0  0  0  0  0  0  0  0
   -0.7011   -0.4107    0.0000 H   0  0  0  0  0  0  0  0  0  0  0  0
  1  2  2  0  0  0  0
  2  3  1  0  0  0  0
  3  4  1  0  0  0  0
  4  5  1  0  0  0  0
  5  6  2  0  0  0  0
  5  7  1  0  0  0  0
  7  8  1  0  0  0  0
  7  9  1  0  0  0  0
  7 10  1  0  0  0  0
 10 11  1  0  0  0  0
 11 12  2  0  0  0  0
 11 13  1  0  0  0  0
 13 14  4  0  0  0  0
 14 15  4  0  0  0  0
 15 16  1  0  0  0  0
 16 17  2  0  0  0  0
 17 18  2  0  0  0  0
 15 19  4  0  0  0  0
 19 20  4  0  0  0  0
 20 21  4  0  0  0  0
 13 21  4  0  0  0  0
 21 22  1  0  0  0  0
  1 23  1  0  0  0  0
  1 24  1  0  0  0  0
  2 25  1  0  0  0  0
  3 26  1  0  0  0  0
  3 27  1  0  0  0  0
  8 28  1  0  0  0  0
  8 29  1  0  0  0  0
  8 30  1  0  0  0  0
  9 31  1  0  0  0  0
  9 32  1  0  0  0  0
  9 33  1  0  0  0  0
 14 34  1  0  0  0  0
 19 35  1  0  0  0  0
 20 36  1  0  0  0  0
M  END
> <id>
814

> <casrn>
204918-22-9

> <smiles (First)>


> <Molecular weight>
323.7283630371094

> <name>
-

> <Outcome>
1

> <Molecule (RDKit Mol) (InChI Code)>
InChI=1S/C15H14ClNO5/c1-4-7-21-14(20)15(2,3)22-13(19)11-8-10(17-9-18)5-6-12(11)16/h4-6,8H,1,7H2,2-3H3

> <reference>
ECHA

> <molecule_form>
A

$$$$

  Mrv1812 01171911372D          

 15 14  0  0  0  0            999 V2000
    2.0625    0.7145    0.0000 C   0  0  0  0  0  0  0  0  0  0  0  0
    1.2375    0.7145    0.0000 C   0  0  0  0  0  0  0  0  0  0  0  0
    0.8250    1.4289    0.0000 O   0  0  0  0  0  0  0  0  0  0  0  0
    0.8250    0.0000    0.0000 C   0  0  0  0  0  0  0  0  0  0  0  0
    0.0000    0.0000    0.0000 C   0  0  0  0  0  0  0  0  0  0  0  0
   -0.4125   -0.7145    0.0000 C   0  0  0  0  0  0  0  0  0  0  0  0
   -0.4125    0.7145    0.0000 O   0  0  0  0  0  0  0  0  0  0  0  0
    2.0625   -0.1105    0.0000 H   0  0  0  0  0  0  0  0  0  0  0  0
    2.8875    0.7145    0.0000 H   0  0  0  0  0  0  0  0  0  0  0  0
    2.0625    1.5395    0.0000 H   0  0  0  0  0  0  0  0  0  0  0  0
    1.2375   -0.7145    0.0000 H   0  0  0  0  0  0  0  0  0  0  0  0
   -1.1270   -0.3020    0.0000 H   0  0  0  0  0  0  0  0  0  0  0  0
   -0.8250   -1.4289    0.0000 H   0  0  0  0  0  0  0  0  0  0  0  0
    0.3020   -1.1270    0.0000 H   0  0  0  0  0  0  0  0  0  0  0  0
    0.0000    1.4289    0.0000 H   0  0  0  0  0  0  0  0  0  0  0  0
  1  2  1  0  0  0  0
  2  3  2  0  0  0  0
  4  2  1  4  0  0  0
  4  5  2  0  0  0  0
  5  6  1  0  0  0  0
  5  7  1  0  0  0  0
  1  8  1  0  0  0  0
  1  9  1  0  0  0  0
  1 10  1  0  0  0  0
  4 11  1  0  0  0  0
  6 12  1  0  0  0  0
  6 13  1  0  0  0  0
  6 14  1  0  0  0  0
  7 15  1  0  0  0  0
M  END
> <id>
3697; 3696; 3698; 2748; 2747

> <casrn>
123-54-6

> <smiles (First)>


> <Molecular weight>
99.7126449584961

> <name>
pentane-2,4-dione

> <Outcome>
1

> <Molecule (RDKit Mol) (InChI Code)>
InChI=1S/C5H8O2/c1-4(6)3-5(2)7/h3,6H,1-2H3

> <reference>
ECHA

> <molecule_form>
V; A

$$$$

  Mrv1812 01171911372D          

  3  2  0  0  0  0            999 V2000
    1.6500   -0.0000    0.0000 S   0  0  0  0  0  0  0  0  0  0  0  0
    2.4750   -0.0000    0.0000 C   0  0  0  0  0  0  0  0  0  0  0  0
    3.3000    0.0000    0.0000 S   0  0  0  0  0  0  0  0  0  0  0  0
  1  2  2  0  0  0  0
  2  3  2  0  0  0  0
M  END
> <id>
3076

> <casrn>
75-15-0

> <smiles (First)>


> <Molecular weight>
76.14070129394531

> <name>
dithioxomethane

> <Outcome>
1

> <Molecule (RDKit Mol) (InChI Code)>
InChI=1S/CS2/c2-1-3

> <reference>
ECHA

> <molecule_form>
G

$$$$

  Mrv1812 01171911372D          

  8  7  0  0  0  0            999 V2000
    1.2375    0.7145    0.0000 C   0  0  0  0  0  0  0  0  0  0  0  0
    0.8250    0.0000    0.0000 C   0  0  0  0  0  0  0  0  0  0  0  0
    1.2375   -0.7145    0.0000 O   0  0  0  0  0  0  0  0  0  0  0  0
   -0.0000    0.0000    0.0000 O   0  0  0  0  0  0  0  0  0  0  0  0
    1.9520    0.3020    0.0000 H   0  0  0  0  0  0  0  0  0  0  0  0
    1.6500    1.4290    0.0000 H   0  0  0  0  0  0  0  0  0  0  0  0
    0.5230    1.1270    0.0000 H   0  0  0  0  0  0  0  0  0  0  0  0
   -0.4125    0.7145    0.0000 H   0  0  0  0  0  0  0  0  0  0  0  0
  1  2  1  0  0  0  0
  2  3  2  0  0  0  0
  2  4  1  0  0  0  0
  1  5  1  0  0  0  0
  1  6  1  0  0  0  0
  1  7  1  0  0  0  0
  4  8  1  0  0  0  0
M  END
> <id>
2564

> <casrn>
64-19-7

> <smiles (First)>


> <Molecular weight>
60.05195999145508

> <name>
acetic acid

> <Outcome>
1

> <Molecule (RDKit Mol) (InChI Code)>
InChI=1S/C2H4O2/c1-2(3)4/h1H3,(H,3,4)

> <reference>
ECHA

> <molecule_form>
V

$$$$

  Mrv1812 01171911372D          

 15 15  0  0  0  0            999 V2000
    0.7145    2.8875    0.0000 F   0  0  0  0  0  0  0  0  0  0  0  0
    0.7145    2.0625    0.0000 C   0  0  0  0  0  0  0  0  0  0  0  0
   -0.1105    2.0625    0.0000 F   0  0  0  0  0  0  0  0  0  0  0  0
    1.5395    2.0625    0.0000 F   0  0  0  0  0  0  0  0  0  0  0  0
    0.7145    1.2375    0.0000 C   0  0  0  0  0  0  0  0  0  0  0  0
    1.4289    0.8250    0.0000 C   0  0  0  0  0  0  0  0  0  0  0  0
    1.4289   -0.0000    0.0000 C   0  0  0  0  0  0  0  0  0  0  0  0
    0.7145   -0.4125    0.0000 C   0  0  0  0  0  0  0  0  0  0  0  0
    0.7145   -1.2375    0.0000 Cl  0  0  0  0  0  0  0  0  0  0  0  0
    0.0000    0.0000    0.0000 C   0  0  0  0  0  0  0  0  0  0  0  0
    0.0000    0.8250    0.0000 C   0  0  0  0  0  0  0  0  0  0  0  0
    2.1434    1.2375    0.0000 H   0  0  0  0  0  0  0  0  0  0  0  0
    2.1434   -0.4125    0.0000 H   0  0  0  0  0  0  0  0  0  0  0  0
   -0.7145   -0.4125    0.0000 H   0  0  0  0  0  0  0  0  0  0  0  0
   -0.7145    1.2375    0.0000 H   0  0  0  0  0  0  0  0  0  0  0  0
  1  2  1  0  0  0  0
  2  3  1  0  0  0  0
  2  4  1  0  0  0  0
  2  5  1  0  0  0  0
  5  6  4  0  0  0  0
  6  7  4  0  0  0  0
  7  8  4  0  0  0  0
  8  9  1  0  0  0  0
  8 10  4  0  0  0  0
 10 11  4  0  0  0  0
  5 11  4  0  0  0  0
  6 12  1  0  0  0  0
  7 13  1  0  0  0  0
 10 14  1  0  0  0  0
 11 15  1  0  0  0  0
M  END
> <id>
1145

> <casrn>
98-56-6

> <smiles (First)>


> <Molecular weight>
180.55487060546875

> <name>
1-chloro-4-(trifluoromethyl)benzene

> <Outcome>
0

> <Molecule (RDKit Mol) (InChI Code)>
InChI=1S/C7H4ClF3/c8-6-3-1-5(2-4-6)7(9,10)11/h1-4H

> <reference>
ECHA

> <molecule_form>
A

$$$$

  Mrv1812 01171911372D          

 25 24  0  0  0  0            999 V2000
    2.9980    2.5559    0.0000 C   0  0  0  0  0  0  0  0  0  0  0  0
    3.7125    2.1434    0.0000 C   0  0  0  0  0  0  0  0  0  0  0  0
    4.4270    2.5559    0.0000 C   0  0  0  0  0  0  0  0  0  0  0  0
    5.1414    2.1434    0.0000 C   0  0  0  0  0  0  0  0  0  0  0  0
    5.8559    2.5559    0.0000 C   0  0  0  0  0  0  0  0  0  0  0  0
    6.5704    2.1434    0.0000 C   0  0  0  0  0  0  0  0  0  0  0  0
    7.2849    2.5559    0.0000 C   0  0  0  0  0  0  0  0  0  0  0  0
    7.9993    2.1434    0.0000 C   0  0  0  0  0  0  0  0  0  0  0  0
    8.7138    2.5559    0.0000 O   0  0  0  0  0  0  0  0  0  0  0  0
    7.9993    1.3184    0.0000 Cl  0  0  0  0  0  0  0  0  0  0  0  0
    3.4105    3.2704    0.0000 H   0  0  0  0  0  0  0  0  0  0  0  0
    2.2836    2.9684    0.0000 H   0  0  0  0  0  0  0  0  0  0  0  0
    2.5855    1.8414    0.0000 H   0  0  0  0  0  0  0  0  0  0  0  0
    3.3422    1.4062    0.0000 H   0  0  0  0  0  0  0  0  0  0  0  0
    4.0828    1.4062    0.0000 H   0  0  0  0  0  0  0  0  0  0  0  0
    4.7972    3.2931    0.0000 H   0  0  0  0  0  0  0  0  0  0  0  0
    4.0567    3.2931    0.0000 H   0  0  0  0  0  0  0  0  0  0  0  0
    4.7712    1.4062    0.0000 H   0  0  0  0  0  0  0  0  0  0  0  0
    5.5117    1.4062    0.0000 H   0  0  0  0  0  0  0  0  0  0  0  0
    6.2262    3.2931    0.0000 H   0  0  0  0  0  0  0  0  0  0  0  0
    5.4857    3.2931    0.0000 H   0  0  0  0  0  0  0  0  0  0  0  0
    6.2001    1.4062    0.0000 H   0  0  0  0  0  0  0  0  0  0  0  0
    6.9406    1.4062    0.0000 H   0  0  0  0  0  0  0  0  0  0  0  0
    7.6551    3.2931    0.0000 H   0  0  0  0  0  0  0  0  0  0  0  0
    6.9146    3.2931    0.0000 H   0  0  0  0  0  0  0  0  0  0  0  0
  1  2  1  0  0  0  0
  2  3  1  0  0  0  0
  3  4  1  0  0  0  0
  4  5  1  0  0  0  0
  5  6  1  0  0  0  0
  6  7  1  0  0  0  0
  7  8  1  0  0  0  0
  8  9  2  0  0  0  0
  8 10  1  0  0  0  0
  1 11  1  0  0  0  0
  1 12  1  0  0  0  0
  1 13  1  0  0  0  0
  2 14  1  0  0  0  0
  2 15  1  0  0  0  0
  3 16  1  0  0  0  0
  3 17  1  0  0  0  0
  4 18  1  0  0  0  0
  4 19  1  0  0  0  0
  5 20  1  0  0  0  0
  5 21  1  0  0  0  0
  6 22  1  0  0  0  0
  6 23  1  0  0  0  0
  7 24  1  0  0  0  0
  7 25  1  0  0  0  0
M  END
> <id>
3637

> <casrn>
111-64-8

> <smiles (First)>


> <Molecular weight>
162.6571044921875

> <name>
octanoyl chloride

> <Outcome>
1

> <Molecule (RDKit Mol) (InChI Code)>
InChI=1S/C8H15ClO/c1-2-3-4-5-6-7-8(9)10/h2-7H2,1H3

> <reference>
ECHA

> <molecule_form>
V

$$$$

  Mrv1812 01171911372D          

 23 22  0  0  0  0            999 V2000
    1.7605    1.8414    0.0000 C   0  0  0  0  0  0  0  0  0  0  0  0
    2.4750    1.4289    0.0000 N   0  0  0  0  0  0  0  0  0  0  0  0
    2.4750    0.6039    0.0000 C   0  0  0  0  0  0  0  0  0  0  0  0
    3.1895    1.8414    0.0000 C   0  0  0  0  0  0  0  0  0  0  0  0
    3.1895    2.6664    0.0000 S   0  0  0  0  0  0  0  0  0  0  0  0
    3.9039    1.4289    0.0000 S   0  0  0  0  0  0  0  0  0  0  0  0
    4.6184    1.8414    0.0000 C   0  0  0  0  0  0  0  0  0  0  0  0
    4.6184    2.6664    0.0000 S   0  0  0  0  0  0  0  0  0  0  0  0
    5.3329    1.4289    0.0000 N   0  0  0  0  0  0  0  0  0  0  0  0
    6.0474    1.8414    0.0000 C   0  0  0  0  0  0  0  0  0  0  0  0
    5.3329    0.6039    0.0000 C   0  0  0  0  0  0  0  0  0  0  0  0
    2.1730    2.5559    0.0000 H   0  0  0  0  0  0  0  0  0  0  0  0
    1.0461    2.2539    0.0000 H   0  0  0  0  0  0  0  0  0  0  0  0
    1.3480    1.1269    0.0000 H   0  0  0  0  0  0  0  0  0  0  0  0
    1.6500    0.6039    0.0000 H   0  0  0  0  0  0  0  0  0  0  0  0
    2.4750   -0.2211    0.0000 H   0  0  0  0  0  0  0  0  0  0  0  0
    3.3000    0.6039    0.0000 H   0  0  0  0  0  0  0  0  0  0  0  0
    6.4599    1.1269    0.0000 H   0  0  0  0  0  0  0  0  0  0  0  0
    6.7618    2.2539    0.0000 H   0  0  0  0  0  0  0  0  0  0  0  0
    5.6349    2.5559    0.0000 H   0  0  0  0  0  0  0  0  0  0  0  0
    4.5079    0.6039    0.0000 H   0  0  0  0  0  0  0  0  0  0  0  0
    5.3329   -0.2211    0.0000 H   0  0  0  0  0  0  0  0  0  0  0  0
    6.1579    0.6039    0.0000 H   0  0  0  0  0  0  0  0  0  0  0  0
  1  2  1  0  0  0  0
  2  3  1  0  0  0  0
  2  4  1  0  0  0  0
  4  5  2  0  0  0  0
  4  6  1  0  0  0  0
  6  7  1  0  0  0  0
  7  8  2  0  0  0  0
  7  9  1  0  0  0  0
  9 10  1  0  0  0  0
  9 11  1  0  0  0  0
  1 12  1  0  0  0  0
  1 13  1  0  0  0  0
  1 14  1  0  0  0  0
  3 15  1  0  0  0  0
  3 16  1  0  0  0  0
  3 17  1  0  0  0  0
 10 18  1  0  0  0  0
 10 19  1  0  0  0  0
 10 20  1  0  0  0  0
 11 21  1  0  0  0  0
 11 22  1  0  0  0  0
 11 23  1  0  0  0  0
M  END
> <id>
2376

> <casrn>
97-74-5

> <smiles (First)>


> <Molecular weight>
208.3678741455078

> <name>
N,N-dimethyl[(dimethylcarbamothioyl)sulfanyl]carbothioamide

> <Outcome>
1

> <Molecule (RDKit Mol) (InChI Code)>
InChI=1S/C6H12N2S3/c1-7(2)5(9)11-6(10)8(3)4/h1-4H3

> <reference>
ECHA

> <molecule_form>
A

$$$$

  Mrv1812 01171911372D          

 16 16  0  0  0  0            999 V2000
    0.7145    2.0625    0.0000 C   0  0  0  0  0  0  0  0  0  0  0  0
    0.7145    1.2375    0.0000 C   0  0  0  0  0  0  0  0  0  0  0  0
    1.4289    0.8250    0.0000 C   0  0  0  0  0  0  0  0  0  0  0  0
    1.4289   -0.0000    0.0000 C   0  0  0  0  0  0  0  0  0  0  0  0
    2.1434   -0.4125    0.0000 Cl  0  0  0  0  0  0  0  0  0  0  0  0
    0.7145   -0.4125    0.0000 C   0  0  0  0  0  0  0  0  0  0  0  0
    0.0000   -0.0000    0.0000 C   0  0  0  0  0  0  0  0  0  0  0  0
    0.0000    0.8250    0.0000 C   0  0  0  0  0  0  0  0  0  0  0  0
   -0.7145    1.2375    0.0000 O   0  0  0  0  0  0  0  0  0  0  0  0
    1.5395    2.0625    0.0000 H   0  0  0  0  0  0  0  0  0  0  0  0
    0.7145    2.8875    0.0000 H   0  0  0  0  0  0  0  0  0  0  0  0
   -0.1105    2.0625    0.0000 H   0  0  0  0  0  0  0  0  0  0  0  0
    2.1434    1.2375    0.0000 H   0  0  0  0  0  0  0  0  0  0  0  0
    0.7145   -1.2375    0.0000 H   0  0  0  0  0  0  0  0  0  0  0  0
   -0.7145   -0.4125    0.0000 H   0  0  0  0  0  0  0  0  0  0  0  0
   -0.7145    2.0625    0.0000 H   0  0  0  0  0  0  0  0  0  0  0  0
  1  2  1  0  0  0  0
  2  3  4  0  0  0  0
  3  4  4  0  0  0  0
  4  5  1  0  0  0  0
  4  6  4  0  0  0  0
  6  7  4  0  0  0  0
  7  8  4  0  0  0  0
  2  8  4  0  0  0  0
  8  9  1  0  0  0  0
  1 10  1  0  0  0  0
  1 11  1  0  0  0  0
  1 12  1  0  0  0  0
  3 13  1  0  0  0  0
  6 14  1  0  0  0  0
  7 15  1  0  0  0  0
  9 16  1  0  0  0  0
M  END
> <id>
1834

> <casrn>
1570-64-5

> <smiles (First)>


> <Molecular weight>
142.5828857421875

> <name>
4-chloro-2-methylphenol

> <Outcome>
1

> <Molecule (RDKit Mol) (InChI Code)>
InChI=1S/C7H7ClO/c1-5-4-6(8)2-3-7(5)9/h2-4,9H,1H3

> <reference>
ECHA

> <molecule_form>
A

$$$$

  Mrv1812 01171911372D          

 46 45  0  0  0  0            999 V2000
   -1.0967    7.6176    0.0000 C   0  0  0  0  0  0  0  0  0  0  0  0
   -1.0967    6.7926    0.0000 C   0  0  0  0  0  0  0  0  0  0  0  0
   -0.3822    6.3801    0.0000 C   0  0  0  0  0  0  0  0  0  0  0  0
   -0.3822    5.5551    0.0000 C   0  0  0  0  0  0  0  0  0  0  0  0
    0.3322    5.1426    0.0000 C   0  0  0  0  0  0  0  0  0  0  0  0
    0.3322    4.3176    0.0000 C   0  0  0  0  0  0  0  0  0  0  0  0
    1.0467    3.9051    0.0000 C   0  0  0  0  0  0  0  0  0  0  0  0
    1.0467    3.0801    0.0000 C   0  0  0  0  0  0  0  0  0  0  0  0
    1.7612    2.6676    0.0000 C   0  0  0  0  0  0  0  0  0  0  0  0
    1.7612    1.8426    0.0000 C   0  0  0  0  0  0  0  0  0  0  0  0
    2.4757    1.4301    0.0000 C   0  0  0  0  0  0  0  0  0  0  0  0
    3.1901    1.8426    0.0000 C   0  0  0  0  0  0  0  0  0  0  0  0
    3.9046    1.4301    0.0000 C   0  0  0  0  0  0  0  0  0  0  0  0
    4.6191    1.8426    0.0000 C   0  0  0  0  0  0  0  0  0  0  0  0
    5.3335    1.4301    0.0000 C   0  0  0  0  0  0  0  0  0  0  0  0
    6.0480    1.8426    0.0000 C   0  0  0  0  0  0  0  0  0  0  0  0
   -0.2717    7.6176    0.0000 H   0  0  0  0  0  0  0  0  0  0  0  0
   -1.0967    8.4426    0.0000 H   0  0  0  0  0  0  0  0  0  0  0  0
   -1.9217    7.6176    0.0000 H   0  0  0  0  0  0  0  0  0  0  0  0
   -1.9203    6.7446    0.0000 H   0  0  0  0  0  0  0  0  0  0  0  0
   -1.5500    6.1033    0.0000 H   0  0  0  0  0  0  0  0  0  0  0  0
    0.4414    6.4280    0.0000 H   0  0  0  0  0  0  0  0  0  0  0  0
    0.0711    7.0694    0.0000 H   0  0  0  0  0  0  0  0  0  0  0  0
   -1.2058    5.5071    0.0000 H   0  0  0  0  0  0  0  0  0  0  0  0
   -0.8356    4.8658    0.0000 H   0  0  0  0  0  0  0  0  0  0  0  0
    1.0467    5.5551    0.0000 H   0  0  0  0  0  0  0  0  0  0  0  0
   -0.3822    3.9051    0.0000 H   0  0  0  0  0  0  0  0  0  0  0  0
    1.8703    3.9530    0.0000 H   0  0  0  0  0  0  0  0  0  0  0  0
    1.5001    4.5944    0.0000 H   0  0  0  0  0  0  0  0  0  0  0  0
    0.2231    3.0321    0.0000 H   0  0  0  0  0  0  0  0  0  0  0  0
    0.5934    2.3908    0.0000 H   0  0  0  0  0  0  0  0  0  0  0  0
    2.4757    3.0801    0.0000 H   0  0  0  0  0  0  0  0  0  0  0  0
    1.0467    1.4301    0.0000 H   0  0  0  0  0  0  0  0  0  0  0  0
    2.1054    0.6928    0.0000 H   0  0  0  0  0  0  0  0  0  0  0  0
    2.8459    0.6928    0.0000 H   0  0  0  0  0  0  0  0  0  0  0  0
    3.5604    2.5798    0.0000 H   0  0  0  0  0  0  0  0  0  0  0  0
    2.8199    2.5798    0.0000 H   0  0  0  0  0  0  0  0  0  0  0  0
    3.5343    0.6928    0.0000 H   0  0  0  0  0  0  0  0  0  0  0  0
    4.2749    0.6928    0.0000 H   0  0  0  0  0  0  0  0  0  0  0  0
    4.9893    2.5798    0.0000 H   0  0  0  0  0  0  0  0  0  0  0  0
    4.2488    2.5798    0.0000 H   0  0  0  0  0  0  0  0  0  0  0  0
    4.9633    0.6928    0.0000 H   0  0  0  0  0  0  0  0  0  0  0  0
    5.7038    0.6928    0.0000 H   0  0  0  0  0  0  0  0  0  0  0  0
    6.4605    1.1281    0.0000 H   0  0  0  0  0  0  0  0  0  0  0  0
    6.7625    2.2551    0.0000 H   0  0  0  0  0  0  0  0  0  0  0  0
    5.6355    2.5570    0.0000 H   0  0  0  0  0  0  0  0  0  0  0  0
  1  2  1  0  0  0  0
  2  3  1  0  0  0  0
  3  4  1  0  0  0  0
  5  4  1  4  0  0  0
  5  6  2  0  0  0  0
  6  7  1  0  0  0  0
  7  8  1  0  0  0  0
  9  8  1  4  0  0  0
  9 10  2  0  0  0  0
 10 11  1  0  0  0  0
 11 12  1  0  0  0  0
 12 13  1  0  0  0  0
 13 14  1  0  0  0  0
 14 15  1  0  0  0  0
 15 16  1  0  0  0  0
  1 17  1  0  0  0  0
  1 18  1  0  0  0  0
  1 19  1  0  0  0  0
  2 20  1  0  0  0  0
  2 21  1  0  0  0  0
  3 22  1  0  0  0  0
  3 23  1  0  0  0  0
  4 24  1  0  0  0  0
  4 25  1  0  0  0  0
  5 26  1  0  0  0  0
  6 27  1  0  0  0  0
  7 28  1  0  0  0  0
  7 29  1  0  0  0  0
  8 30  1  0  0  0  0
  8 31  1  0  0  0  0
  9 32  1  0  0  0  0
 10 33  1  0  0  0  0
 11 34  1  0  0  0  0
 11 35  1  0  0  0  0
 12 36  1  0  0  0  0
 12 37  1  0  0  0  0
 13 38  1  0  0  0  0
 13 39  1  0  0  0  0
 14 40  1  0  0  0  0
 14 41  1  0  0  0  0
 15 42  1  0  0  0  0
 15 43  1  0  0  0  0
 16 44  1  0  0  0  0
 16 45  1  0  0  0  0
 16 46  1  0  0  0  0
M  END
> <id>
1932; 1942

> <casrn>
93762-80-2

> <smiles (First)>


> <Molecular weight>
222.40940856933594

> <name>
Alkenes, C15-18

> <Outcome>
0

> <Molecule (RDKit Mol) (InChI Code)>
InChI=1S/C16H30/c1-3-5-7-9-11-13-15-16-14-12-10-8-6-4-2/h9,11,14,16H,3-8,10,12-13,15H2,1-2H3

> <reference>
ECHA

> <molecule_form>
V

$$$$

  Mrv1812 01171911372D          

 24 23  0  0  0  0            999 V2000
    1.0461    0.2211    0.0000 O   0  0  0  0  0  0  0  0  0  0  0  0
    1.0461   -0.6039    0.0000 C   0  0  0  0  0  0  0  0  0  0  0  0
    1.0461   -1.4289    0.0000 N   0  0  0  0  0  0  0  0  0  0  0  0
    1.7605   -1.8414    0.0000 C   0  0  0  0  0  0  0  0  0  0  0  0
    2.4750   -1.4289    0.0000 C   0  0  0  0  0  0  0  0  0  0  0  0
    3.1895   -1.8414    0.0000 C   0  0  0  0  0  0  0  0  0  0  0  0
    3.9039   -1.4289    0.0000 C   0  0  0  0  0  0  0  0  0  0  0  0
    4.6184   -1.8414    0.0000 C   0  0  0  0  0  0  0  0  0  0  0  0
    5.3329   -1.4289    0.0000 C   0  0  0  0  0  0  0  0  0  0  0  0
    6.0474   -1.8414    0.0000 N   0  0  0  0  0  0  0  0  0  0  0  0
    6.7618   -1.4289    0.0000 C   0  0  0  0  0  0  0  0  0  0  0  0
    7.4763   -1.0164    0.0000 O   0  0  0  0  0  0  0  0  0  0  0  0
    1.3903   -2.5786    0.0000 H   0  0  0  0  0  0  0  0  0  0  0  0
    2.1308   -2.5786    0.0000 H   0  0  0  0  0  0  0  0  0  0  0  0
    2.8453   -0.6917    0.0000 H   0  0  0  0  0  0  0  0  0  0  0  0
    2.1047   -0.6917    0.0000 H   0  0  0  0  0  0  0  0  0  0  0  0
    2.8192   -2.5786    0.0000 H   0  0  0  0  0  0  0  0  0  0  0  0
    3.5597   -2.5786    0.0000 H   0  0  0  0  0  0  0  0  0  0  0  0
    4.2742   -0.6917    0.0000 H   0  0  0  0  0  0  0  0  0  0  0  0
    3.5337   -0.6917    0.0000 H   0  0  0  0  0  0  0  0  0  0  0  0
    4.2482   -2.5786    0.0000 H   0  0  0  0  0  0  0  0  0  0  0  0
    4.9887   -2.5786    0.0000 H   0  0  0  0  0  0  0  0  0  0  0  0
    5.7031   -0.6917    0.0000 H   0  0  0  0  0  0  0  0  0  0  0  0
    4.9626   -0.6917    0.0000 H   0  0  0  0  0  0  0  0  0  0  0  0
  1  2  2  0  0  0  0
  2  3  2  0  0  0  0
  3  4  1  0  0  0  0
  4  5  1  0  0  0  0
  5  6  1  0  0  0  0
  6  7  1  0  0  0  0
  7  8  1  0  0  0  0
  8  9  1  0  0  0  0
  9 10  1  0  0  0  0
 10 11  2  0  0  0  0
 11 12  2  0  0  0  0
  4 13  1  0  0  0  0
  4 14  1  0  0  0  0
  5 15  1  0  0  0  0
  5 16  1  0  0  0  0
  6 17  1  0  0  0  0
  6 18  1  0  0  0  0
  7 19  1  0  0  0  0
  7 20  1  0  0  0  0
  8 21  1  0  0  0  0
  8 22  1  0  0  0  0
  9 23  1  0  0  0  0
  9 24  1  0  0  0  0
M  END
> <id>
1077

> <casrn>
822-06-0

> <smiles (First)>


> <Molecular weight>
168.19308471679688

> <name>
1,6-diisocyanatohexane

> <Outcome>
1

> <Molecule (RDKit Mol) (InChI Code)>
InChI=1S/C8H12N2O2/c11-7-9-5-3-1-2-4-6-10-8-12/h1-6H2

> <reference>
ECHA

> <molecule_form>
V

$$$$

  Mrv1812 01171911372D          

 29 28  0  0  0  0            999 V2000
    2.9333    2.5583    0.0000 C   0  0  0  0  0  0  0  0  0  0  0  0
    3.6478    2.1458    0.0000 C   0  0  0  0  0  0  0  0  0  0  0  0
    4.3622    2.5583    0.0000 C   0  0  0  0  0  0  0  0  0  0  0  0
    5.0767    2.1458    0.0000 C   0  0  0  0  0  0  0  0  0  0  0  0
    5.7912    2.5583    0.0000 C   0  0  0  0  0  0  0  0  0  0  0  0
    5.7912    3.3833    0.0000 C   0  0  0  0  0  0  0  0  0  0  0  0
    6.5056    3.7958    0.0000 C   0  0  0  0  0  0  0  0  0  0  0  0
    6.5056    2.1458    0.0000 C   0  0  0  0  0  0  0  0  0  0  0  0
    7.2201    2.5583    0.0000 O   0  0  0  0  0  0  0  0  0  0  0  0
    7.9346    2.1458    0.0000 C   0  0  0  0  0  0  0  0  0  0  0  0
    8.6491    2.5583    0.0000 O   0  0  0  0  0  0  0  0  0  0  0  0
    7.9346    1.3208    0.0000 Cl  0  0  0  0  0  0  0  0  0  0  0  0
    3.3458    3.2727    0.0000 H   0  0  0  0  0  0  0  0  0  0  0  0
    2.2188    2.9708    0.0000 H   0  0  0  0  0  0  0  0  0  0  0  0
    2.5208    1.8438    0.0000 H   0  0  0  0  0  0  0  0  0  0  0  0
    3.2775    1.4085    0.0000 H   0  0  0  0  0  0  0  0  0  0  0  0
    4.0180    1.4085    0.0000 H   0  0  0  0  0  0  0  0  0  0  0  0
    4.7325    3.2955    0.0000 H   0  0  0  0  0  0  0  0  0  0  0  0
    3.9920    3.2955    0.0000 H   0  0  0  0  0  0  0  0  0  0  0  0
    4.7064    1.4085    0.0000 H   0  0  0  0  0  0  0  0  0  0  0  0
    5.4470    1.4085    0.0000 H   0  0  0  0  0  0  0  0  0  0  0  0
    5.0767    2.9708    0.0000 H   0  0  0  0  0  0  0  0  0  0  0  0
    5.6479    4.1957    0.0000 H   0  0  0  0  0  0  0  0  0  0  0  0
    5.1592    3.9136    0.0000 H   0  0  0  0  0  0  0  0  0  0  0  0
    6.7365    3.0037    0.0000 H   0  0  0  0  0  0  0  0  0  0  0  0
    7.3299    3.8317    0.0000 H   0  0  0  0  0  0  0  0  0  0  0  0
    6.6666    4.6049    0.0000 H   0  0  0  0  0  0  0  0  0  0  0  0
    6.1354    1.4085    0.0000 H   0  0  0  0  0  0  0  0  0  0  0  0
    6.8759    1.4085    0.0000 H   0  0  0  0  0  0  0  0  0  0  0  0
  1  2  1  0  0  0  0
  2  3  1  0  0  0  0
  3  4  1  0  0  0  0
  4  5  1  0  0  0  0
  5  6  1  0  0  0  0
  6  7  1  0  0  0  0
  5  8  1  0  0  0  0
  8  9  1  0  0  0  0
  9 10  1  0  0  0  0
 10 11  2  0  0  0  0
 10 12  1  0  0  0  0
  1 13  1  0  0  0  0
  1 14  1  0  0  0  0
  1 15  1  0  0  0  0
  2 16  1  0  0  0  0
  2 17  1  0  0  0  0
  3 18  1  0  0  0  0
  3 19  1  0  0  0  0
  4 20  1  0  0  0  0
  4 21  1  0  0  0  0
  5 22  1  0  0  0  0
  6 23  1  0  0  0  0
  6 24  1  0  0  0  0
  7 25  1  0  0  0  0
  7 26  1  0  0  0  0
  7 27  1  0  0  0  0
  8 28  1  0  0  0  0
  8 29  1  0  0  0  0
M  END
> <id>
1474; 1473

> <casrn>
24468-13-1

> <smiles (First)>


> <Molecular weight>
192.68307495117188

> <name>
2-ethylhexyl chlorocarbonate

> <Outcome>
1

> <Molecule (RDKit Mol) (InChI Code)>
InChI=1S/C9H17ClO2/c1-3-5-6-8(4-2)7-12-9(10)11/h8H,3-7H2,1-2H3

> <reference>
ECHA

> <molecule_form>
V

$$$$

  Mrv1812 01171911372D          

 22 22  0  0  0  0            999 V2000
    2.8593    1.6508    0.0000 O   0  0  0  0  0  0  0  0  0  0  0  0
    2.1448    2.0633    0.0000 C   0  0  0  0  0  0  0  0  0  0  0  0
    1.4303    2.4758    0.0000 N   0  0  0  0  0  0  0  0  0  0  0  0
    0.7159    2.0633    0.0000 C   0  0  0  0  0  0  0  0  0  0  0  0
    0.7159    1.2383    0.0000 C   0  0  0  0  0  0  0  0  0  0  0  0
    1.4303    0.8258    0.0000 C   0  0  0  0  0  0  0  0  0  0  0  0
    1.4303    0.0008    0.0000 C   0  0  0  0  0  0  0  0  0  0  0  0
    0.7159   -0.4117    0.0000 C   0  0  0  0  0  0  0  0  0  0  0  0
    0.0014    0.0008    0.0000 C   0  0  0  0  0  0  0  0  0  0  0  0
   -0.7131   -0.4117    0.0000 C   0  0  0  0  0  0  0  0  0  0  0  0
   -1.4276    0.0008    0.0000 N   0  0  0  0  0  0  0  0  0  0  0  0
   -2.1420   -0.4117    0.0000 C   0  0  0  0  0  0  0  0  0  0  0  0
   -2.8565   -0.8242    0.0000 O   0  0  0  0  0  0  0  0  0  0  0  0
    0.0014    0.8258    0.0000 C   0  0  0  0  0  0  0  0  0  0  0  0
    0.2625    2.7526    0.0000 H   0  0  0  0  0  0  0  0  0  0  0  0
   -0.1077    2.1113    0.0000 H   0  0  0  0  0  0  0  0  0  0  0  0
    2.1448    1.2383    0.0000 H   0  0  0  0  0  0  0  0  0  0  0  0
    2.1448   -0.4117    0.0000 H   0  0  0  0  0  0  0  0  0  0  0  0
    0.7159   -1.2367    0.0000 H   0  0  0  0  0  0  0  0  0  0  0  0
   -1.0833   -1.1489    0.0000 H   0  0  0  0  0  0  0  0  0  0  0  0
   -0.3428   -1.1489    0.0000 H   0  0  0  0  0  0  0  0  0  0  0  0
   -0.7131    1.2383    0.0000 H   0  0  0  0  0  0  0  0  0  0  0  0
  1  2  2  0  0  0  0
  2  3  2  0  0  0  0
  3  4  1  0  0  0  0
  4  5  1  0  0  0  0
  5  6  4  0  0  0  0
  6  7  4  0  0  0  0
  7  8  4  0  0  0  0
  8  9  4  0  0  0  0
  9 10  1  0  0  0  0
 10 11  1  0  0  0  0
 11 12  2  0  0  0  0
 12 13  2  0  0  0  0
  9 14  4  0  0  0  0
  5 14  4  0  0  0  0
  4 15  1  0  0  0  0
  4 16  1  0  0  0  0
  6 17  1  0  0  0  0
  7 18  1  0  0  0  0
  8 19  1  0  0  0  0
 10 20  1  0  0  0  0
 10 21  1  0  0  0  0
 14 22  1  0  0  0  0
M  END
> <id>
976; 977

> <casrn>
3634-83-1

> <smiles (First)>


> <Molecular weight>
188.18272399902344

> <name>
1,3-bis(isocyanatomethyl)benzene

> <Outcome>
1

> <Molecule (RDKit Mol) (InChI Code)>
InChI=1S/C10H8N2O2/c13-7-11-5-9-2-1-3-10(4-9)6-12-8-14/h1-4H,5-6H2

> <reference>
ECHA

> <molecule_form>
A

$$$$

  Mrv1812 01171911372D          

 86 87  0  0  0  0            999 V2000
    1.5817   -8.4729    0.0000 C   0  0  0  0  0  0  0  0  0  0  0  0
    2.1120   -7.8410    0.0000 C   0  0  0  0  0  0  0  0  0  0  0  0
    2.6423   -8.4729    0.0000 C   0  0  0  0  0  0  0  0  0  0  0  0
    1.3976   -7.4285    0.0000 C   0  0  0  0  0  0  0  0  0  0  0  0
    1.3976   -6.6035    0.0000 N   0  0  0  0  0  0  0  0  0  0  0  0
    2.1120   -6.1910    0.0000 C   0  0  0  0  0  0  0  0  0  0  0  0
    2.8265   -6.6035    0.0000 C   0  0  0  0  0  0  0  0  0  0  0  0
    3.1087   -5.8282    0.0000 C   0  0  0  0  0  0  0  0  0  0  0  0
    3.6390   -6.7467    0.0000 C   0  0  0  0  0  0  0  0  0  0  0  0
    2.8265   -7.4285    0.0000 C   0  0  0  0  0  0  0  0  0  0  0  0
    3.5410   -7.8410    0.0000 O   0  0  0  0  0  0  0  0  0  0  0  0
    4.2555   -7.4285    0.0000 C   0  0  0  0  0  0  0  0  0  0  0  0
    4.2555   -6.6035    0.0000 O   0  0  0  0  0  0  0  0  0  0  0  0
    4.9699   -7.8410    0.0000 C   0  0  0  0  0  0  0  0  0  0  0  0
    5.6844   -7.4285    0.0000 C   0  0  0  0  0  0  0  0  0  0  0  0
    6.3989   -7.8410    0.0000 C   0  0  0  0  0  0  0  0  0  0  0  0
    7.1133   -7.4285    0.0000 C   0  0  0  0  0  0  0  0  0  0  0  0
    7.8278   -7.8410    0.0000 C   0  0  0  0  0  0  0  0  0  0  0  0
    8.5423   -7.4285    0.0000 C   0  0  0  0  0  0  0  0  0  0  0  0
    9.2568   -7.8410    0.0000 C   0  0  0  0  0  0  0  0  0  0  0  0
    9.9712   -7.4285    0.0000 C   0  0  0  0  0  0  0  0  0  0  0  0
   10.6857   -7.8410    0.0000 C   0  0  0  0  0  0  0  0  0  0  0  0
   10.6857   -8.6660    0.0000 O   0  0  0  0  0  0  0  0  0  0  0  0
   11.4002   -7.4285    0.0000 O   0  0  0  0  0  0  0  0  0  0  0  0
   12.1146   -7.8410    0.0000 C   0  0  0  0  0  0  0  0  0  0  0  0
   12.8291   -7.4285    0.0000 C   0  0  0  0  0  0  0  0  0  0  0  0
   12.2988   -6.7965    0.0000 C   0  0  0  0  0  0  0  0  0  0  0  0
   13.3594   -6.7965    0.0000 C   0  0  0  0  0  0  0  0  0  0  0  0
   13.5436   -7.8410    0.0000 C   0  0  0  0  0  0  0  0  0  0  0  0
   13.5436   -8.6660    0.0000 N   0  0  0  0  0  0  0  0  0  0  0  0
   12.8291   -9.0785    0.0000 C   0  0  0  0  0  0  0  0  0  0  0  0
   12.1146   -8.6660    0.0000 C   0  0  0  0  0  0  0  0  0  0  0  0
   11.6775   -9.3656    0.0000 C   0  0  0  0  0  0  0  0  0  0  0  0
   11.2901   -8.6947    0.0000 C   0  0  0  0  0  0  0  0  0  0  0  0
    0.9498   -7.9426    0.0000 H   0  0  0  0  0  0  0  0  0  0  0  0
    1.0514   -9.1049    0.0000 H   0  0  0  0  0  0  0  0  0  0  0  0
    2.2137   -9.0032    0.0000 H   0  0  0  0  0  0  0  0  0  0  0  0
    3.0013   -9.2158    0.0000 H   0  0  0  0  0  0  0  0  0  0  0  0
    3.4673   -8.4654    0.0000 H   0  0  0  0  0  0  0  0  0  0  0  0
    2.9876   -7.7236    0.0000 H   0  0  0  0  0  0  0  0  0  0  0  0
    0.6250   -7.1392    0.0000 H   0  0  0  0  0  0  0  0  0  0  0  0
    2.1120   -7.0160    0.0000 H   0  0  0  0  0  0  0  0  0  0  0  0
    0.9559   -5.9066    0.0000 H   0  0  0  0  0  0  0  0  0  0  0  0
    2.4823   -5.4537    0.0000 H   0  0  0  0  0  0  0  0  0  0  0  0
    1.7418   -5.4537    0.0000 H   0  0  0  0  0  0  0  0  0  0  0  0
    3.6898   -6.4138    0.0000 H   0  0  0  0  0  0  0  0  0  0  0  0
    3.8861   -5.5520    0.0000 H   0  0  0  0  0  0  0  0  0  0  0  0
    3.1900   -5.0072    0.0000 H   0  0  0  0  0  0  0  0  0  0  0  0
    2.9834   -7.2475    0.0000 H   0  0  0  0  0  0  0  0  0  0  0  0
    3.5635   -7.5682    0.0000 H   0  0  0  0  0  0  0  0  0  0  0  0
    3.1580   -6.0764    0.0000 H   0  0  0  0  0  0  0  0  0  0  0  0
    2.6034   -8.2227    0.0000 H   0  0  0  0  0  0  0  0  0  0  0  0
    4.5997   -8.5782    0.0000 H   0  0  0  0  0  0  0  0  0  0  0  0
    5.3402   -8.5782    0.0000 H   0  0  0  0  0  0  0  0  0  0  0  0
    6.0547   -6.6912    0.0000 H   0  0  0  0  0  0  0  0  0  0  0  0
    5.3141   -6.6912    0.0000 H   0  0  0  0  0  0  0  0  0  0  0  0
    6.0286   -8.5782    0.0000 H   0  0  0  0  0  0  0  0  0  0  0  0
    6.7691   -8.5782    0.0000 H   0  0  0  0  0  0  0  0  0  0  0  0
    7.4836   -6.6912    0.0000 H   0  0  0  0  0  0  0  0  0  0  0  0
    6.7431   -6.6912    0.0000 H   0  0  0  0  0  0  0  0  0  0  0  0
    7.4576   -8.5782    0.0000 H   0  0  0  0  0  0  0  0  0  0  0  0
    8.1981   -8.5782    0.0000 H   0  0  0  0  0  0  0  0  0  0  0  0
    8.9125   -6.6912    0.0000 H   0  0  0  0  0  0  0  0  0  0  0  0
    8.1720   -6.6912    0.0000 H   0  0  0  0  0  0  0  0  0  0  0  0
    8.8865   -8.5782    0.0000 H   0  0  0  0  0  0  0  0  0  0  0  0
    9.6270   -8.5782    0.0000 H   0  0  0  0  0  0  0  0  0  0  0  0
   10.3415   -6.6912    0.0000 H   0  0  0  0  0  0  0  0  0  0  0  0
    9.6010   -6.6912    0.0000 H   0  0  0  0  0  0  0  0  0  0  0  0
   11.4002   -8.2535    0.0000 H   0  0  0  0  0  0  0  0  0  0  0  0
   12.9308   -6.2662    0.0000 H   0  0  0  0  0  0  0  0  0  0  0  0
   11.7685   -6.1645    0.0000 H   0  0  0  0  0  0  0  0  0  0  0  0
   11.6668   -7.3268    0.0000 H   0  0  0  0  0  0  0  0  0  0  0  0
   13.7046   -7.5458    0.0000 H   0  0  0  0  0  0  0  0  0  0  0  0
   14.1844   -6.8040    0.0000 H   0  0  0  0  0  0  0  0  0  0  0  0
   13.7183   -6.0536    0.0000 H   0  0  0  0  0  0  0  0  0  0  0  0
   14.3430   -8.0448    0.0000 H   0  0  0  0  0  0  0  0  0  0  0  0
   12.8291   -8.2535    0.0000 H   0  0  0  0  0  0  0  0  0  0  0  0
   14.2581   -9.0785    0.0000 H   0  0  0  0  0  0  0  0  0  0  0  0
   12.4588   -9.8157    0.0000 H   0  0  0  0  0  0  0  0  0  0  0  0
   13.1994   -9.8157    0.0000 H   0  0  0  0  0  0  0  0  0  0  0  0
   10.8595   -9.2581    0.0000 H   0  0  0  0  0  0  0  0  0  0  0  0
   11.0944   -9.9492    0.0000 H   0  0  0  0  0  0  0  0  0  0  0  0
   11.7857  -10.1835    0.0000 H   0  0  0  0  0  0  0  0  0  0  0  0
   11.0113   -7.9183    0.0000 H   0  0  0  0  0  0  0  0  0  0  0  0
   10.6268   -8.2042    0.0000 H   0  0  0  0  0  0  0  0  0  0  0  0
   11.9313   -8.1756    0.0000 H   0  0  0  0  0  0  0  0  0  0  0  0
  1  2  1  0  0  0  0
  2  3  1  0  0  0  0
  2  4  1  0  0  0  0
  4  5  1  0  0  0  0
  5  6  1  0  0  0  0
  6  7  1  0  0  0  0
  7  8  1  0  0  0  0
  7  9  1  0  0  0  0
  7 10  1  0  0  0  0
  2 10  1  0  0  0  0
 10 11  1  0  0  0  0
 11 12  1  0  0  0  0
 12 13  2  0  0  0  0
 12 14  1  0  0  0  0
 14 15  1  0  0  0  0
 15 16  1  0  0  0  0
 16 17  1  0  0  0  0
 17 18  1  0  0  0  0
 18 19  1  0  0  0  0
 19 20  1  0  0  0  0
 20 21  1  0  0  0  0
 21 22  1  0  0  0  0
 22 23  2  0  0  0  0
 22 24  1  0  0  0  0
 24 25  1  0  0  0  0
 25 26  1  0  0  0  0
 26 27  1  0  0  0  0
 26 28  1  0  0  0  0
 26 29  1  0  0  0  0
 29 30  1  0  0  0  0
 30 31  1  0  0  0  0
 31 32  1  0  0  0  0
 25 32  1  0  0  0  0
 32 33  1  0  0  0  0
 32 34  1  0  0  0  0
  1 35  1  0  0  0  0
  1 36  1  0  0  0  0
  1 37  1  0  0  0  0
  3 38  1  0  0  0  0
  3 39  1  0  0  0  0
  3 40  1  0  0  0  0
  4 41  1  0  0  0  0
  4 42  1  0  0  0  0
  5 43  1  0  0  0  0
  6 44  1  0  0  0  0
  6 45  1  0  0  0  0
  8 46  1  0  0  0  0
  8 47  1  0  0  0  0
  8 48  1  0  0  0  0
  9 49  1  0  0  0  0
  9 50  1  0  0  0  0
  9 51  1  0  0  0  0
 10 52  1  0  0  0  0
 14 53  1  0  0  0  0
 14 54  1  0  0  0  0
 15 55  1  0  0  0  0
 15 56  1  0  0  0  0
 16 57  1  0  0  0  0
 16 58  1  0  0  0  0
 17 59  1  0  0  0  0
 17 60  1  0  0  0  0
 18 61  1  0  0  0  0
 18 62  1  0  0  0  0
 19 63  1  0  0  0  0
 19 64  1  0  0  0  0
 20 65  1  0  0  0  0
 20 66  1  0  0  0  0
 21 67  1  0  0  0  0
 21 68  1  0  0  0  0
 25 69  1  0  0  0  0
 27 70  1  0  0  0  0
 27 71  1  0  0  0  0
 27 72  1  0  0  0  0
 28 73  1  0  0  0  0
 28 74  1  0  0  0  0
 28 75  1  0  0  0  0
 29 76  1  0  0  0  0
 29 77  1  0  0  0  0
 30 78  1  0  0  0  0
 31 79  1  0  0  0  0
 31 80  1  0  0  0  0
 33 81  1  0  0  0  0
 33 82  1  0  0  0  0
 33 83  1  0  0  0  0
 34 84  1  0  0  0  0
 34 85  1  0  0  0  0
 34 86  1  0  0  0  0
M  END
> <id>
2647

> <casrn>
52829-07-9

> <smiles (First)>


> <Molecular weight>
480.7234802246094

> <name>
bis(2,2,6,6-tetramethylpiperidin-4-yl) decanedioate

> <Outcome>
1

> <Molecule (RDKit Mol) (InChI Code)>
InChI=1S/C28H52N2O4/c1-25(2)17-29-18-26(3,4)23(25)33-21(31)15-13-11-9-10-12-14-16-22(32)34-24-27(5,6)19-30-20-28(24,7)8/h23-24,29-30H,9-20H2,1-8H3

> <reference>
ECHA

> <molecule_form>
A

$$$$

  Mrv1812 01171911372D          

 14 14  0  0  0  0            999 V2000
    0.5662    1.1121    0.0000 C   0  0  0  0  0  0  0  0  0  0  0  0
    1.2336    0.6272    0.0000 C   0  0  0  0  0  0  0  0  0  0  0  0
    0.9787   -0.1575    0.0000 C   0  0  0  0  0  0  0  0  0  0  0  0
    0.1537   -0.1575    0.0000 N   0  0  0  0  0  0  0  0  0  0  0  0
   -0.1013    0.6272    0.0000 C   0  0  0  0  0  0  0  0  0  0  0  0
    0.9535    1.8405    0.0000 H   0  0  0  0  0  0  0  0  0  0  0  0
    0.1789    1.8405    0.0000 H   0  0  0  0  0  0  0  0  0  0  0  0
    2.0461    0.4839    0.0000 H   0  0  0  0  0  0  0  0  0  0  0  0
    1.8067    1.2206    0.0000 H   0  0  0  0  0  0  0  0  0  0  0  0
    1.0935   -0.9744    0.0000 H   0  0  0  0  0  0  0  0  0  0  0  0
    1.7202   -0.5191    0.0000 H   0  0  0  0  0  0  0  0  0  0  0  0
   -0.3312   -0.8249    0.0000 H   0  0  0  0  0  0  0  0  0  0  0  0
   -0.6744    1.2206    0.0000 H   0  0  0  0  0  0  0  0  0  0  0  0
   -0.9137    0.4839    0.0000 H   0  0  0  0  0  0  0  0  0  0  0  0
  1  2  1  0  0  0  0
  2  3  1  0  0  0  0
  3  4  1  0  0  0  0
  4  5  1  0  0  0  0
  1  5  1  0  0  0  0
  1  6  1  0  0  0  0
  1  7  1  0  0  0  0
  2  8  1  0  0  0  0
  2  9  1  0  0  0  0
  3 10  1  0  0  0  0
  3 11  1  0  0  0  0
  4 12  1  0  0  0  0
  5 13  1  0  0  0  0
  5 14  1  0  0  0  0
M  END
> <id>
3815; 3817

> <casrn>
123-75-1

> <smiles (First)>


> <Molecular weight>
71.12096405029297

> <name>
pyrrolidine

> <Outcome>
1

> <Molecule (RDKit Mol) (InChI Code)>
InChI=1S/C4H9N/c1-2-4-5-3-1/h5H,1-4H2

> <reference>
ECHA

> <molecule_form>
V

$$$$

  Mrv1812 01171911372D          

 24 25  0  0  0  0            999 V2000
    2.7845    0.6979    0.0000 C   0  0  0  0  0  0  0  0  0  0  0  0
    2.0701    1.1104    0.0000 N   0  0  0  0  0  0  0  0  0  0  0  0
    1.3556    0.6979    0.0000 C   0  0  0  0  0  0  0  0  0  0  0  0
    1.3556   -0.1271    0.0000 O   0  0  0  0  0  0  0  0  0  0  0  0
    0.6411    1.1104    0.0000 C   0  0  0  0  0  0  0  0  0  0  0  0
    0.6411    1.9354    0.0000 C   0  0  0  0  0  0  0  0  0  0  0  0
   -0.1435    2.1904    0.0000 N   0  0  0  0  0  0  0  0  0  0  0  0
   -0.6284    1.5229    0.0000 C   0  0  0  0  0  0  0  0  0  0  0  0
   -0.1435    0.8555    0.0000 N   0  0  0  0  0  0  0  0  0  0  0  0
   -0.3984    0.0709    0.0000 C   0  0  0  0  0  0  0  0  0  0  0  0
    1.3556    2.3479    0.0000 N   0  0  0  0  0  0  0  0  0  0  0  0
    1.3556    3.1729    0.0000 C   0  0  0  0  0  0  0  0  0  0  0  0
    2.0701    1.9354    0.0000 C   0  0  0  0  0  0  0  0  0  0  0  0
    2.7845    2.3479    0.0000 O   0  0  0  0  0  0  0  0  0  0  0  0
    2.3720   -0.0166    0.0000 H   0  0  0  0  0  0  0  0  0  0  0  0
    3.4990    0.2854    0.0000 H   0  0  0  0  0  0  0  0  0  0  0  0
    3.1970    1.4124    0.0000 H   0  0  0  0  0  0  0  0  0  0  0  0
   -1.4534    1.5229    0.0000 H   0  0  0  0  0  0  0  0  0  0  0  0
   -1.1831    0.3258    0.0000 H   0  0  0  0  0  0  0  0  0  0  0  0
   -0.6534   -0.7138    0.0000 H   0  0  0  0  0  0  0  0  0  0  0  0
    0.3862   -0.1841    0.0000 H   0  0  0  0  0  0  0  0  0  0  0  0
    2.1806    3.1729    0.0000 H   0  0  0  0  0  0  0  0  0  0  0  0
    1.3556    3.9979    0.0000 H   0  0  0  0  0  0  0  0  0  0  0  0
    0.5306    3.1729    0.0000 H   0  0  0  0  0  0  0  0  0  0  0  0
  1  2  1  0  0  0  0
  2  3  1  0  0  0  0
  3  4  2  0  0  0  0
  3  5  1  0  0  0  0
  5  6  4  0  0  0  0
  6  7  4  0  0  0  0
  7  8  4  0  0  0  0
  8  9  4  0  0  0  0
  5  9  4  0  0  0  0
  9 10  1  0  0  0  0
  6 11  1  0  0  0  0
 11 12  1  0  0  0  0
 11 13  1  0  0  0  0
  2 13  1  0  0  0  0
 13 14  2  0  0  0  0
  1 15  1  0  0  0  0
  1 16  1  0  0  0  0
  1 17  1  0  0  0  0
  8 18  1  0  0  0  0
 10 19  1  0  0  0  0
 10 20  1  0  0  0  0
 10 21  1  0  0  0  0
 12 22  1  0  0  0  0
 12 23  1  0  0  0  0
 12 24  1  0  0  0  0
M  END
> <id>
968

> <casrn>
58-08-2

> <smiles (First)>


> <Molecular weight>
194.1905975341797

> <name>
1,3,7-trimethyl-2,3,6,7-tetrahydro-1H-purine-2,6-dione

> <Outcome>
1

> <Molecule (RDKit Mol) (InChI Code)>
InChI=1S/C8H10N4O2/c1-10-4-9-6-5(10)7(13)12(3)8(14)11(6)2/h4H,1-3H3

> <reference>
ECHA

> <molecule_form>
A

$$$$

  Mrv1812 01171911372D          

 52 51  0  0  0  0            999 V2000
    5.3142    4.0077    0.0000 C   0  0  0  0  0  0  0  0  0  0  0  0
    6.0287    3.5952    0.0000 C   0  0  0  0  0  0  0  0  0  0  0  0
    6.7432    4.0077    0.0000 C   0  0  0  0  0  0  0  0  0  0  0  0
    7.4576    3.5952    0.0000 C   0  0  0  0  0  0  0  0  0  0  0  0
    8.1721    4.0077    0.0000 C   0  0  0  0  0  0  0  0  0  0  0  0
    8.1721    4.8327    0.0000 C   0  0  0  0  0  0  0  0  0  0  0  0
    8.8866    5.2452    0.0000 C   0  0  0  0  0  0  0  0  0  0  0  0
    8.8866    3.5952    0.0000 C   0  0  0  0  0  0  0  0  0  0  0  0
    9.6011    4.0077    0.0000 N   0  0  0  0  0  0  0  0  0  0  0  0
   10.3155    3.5952    0.0000 C   0  0  0  0  0  0  0  0  0  0  0  0
   11.0300    4.0077    0.0000 C   0  0  0  0  0  0  0  0  0  0  0  0
   11.0300    4.8327    0.0000 C   0  0  0  0  0  0  0  0  0  0  0  0
   11.7445    5.2452    0.0000 C   0  0  0  0  0  0  0  0  0  0  0  0
   11.7445    3.5952    0.0000 C   0  0  0  0  0  0  0  0  0  0  0  0
   12.4589    4.0077    0.0000 C   0  0  0  0  0  0  0  0  0  0  0  0
   13.1734    3.5952    0.0000 C   0  0  0  0  0  0  0  0  0  0  0  0
   13.8879    4.0077    0.0000 C   0  0  0  0  0  0  0  0  0  0  0  0
    5.7267    4.7221    0.0000 H   0  0  0  0  0  0  0  0  0  0  0  0
    4.5998    4.4202    0.0000 H   0  0  0  0  0  0  0  0  0  0  0  0
    4.9017    3.2932    0.0000 H   0  0  0  0  0  0  0  0  0  0  0  0
    5.6584    2.8579    0.0000 H   0  0  0  0  0  0  0  0  0  0  0  0
    6.3990    2.8579    0.0000 H   0  0  0  0  0  0  0  0  0  0  0  0
    7.1134    4.7449    0.0000 H   0  0  0  0  0  0  0  0  0  0  0  0
    6.3729    4.7449    0.0000 H   0  0  0  0  0  0  0  0  0  0  0  0
    7.0874    2.8579    0.0000 H   0  0  0  0  0  0  0  0  0  0  0  0
    7.8279    2.8579    0.0000 H   0  0  0  0  0  0  0  0  0  0  0  0
    7.4576    4.4202    0.0000 H   0  0  0  0  0  0  0  0  0  0  0  0
    8.0289    5.6451    0.0000 H   0  0  0  0  0  0  0  0  0  0  0  0
    7.5401    5.3630    0.0000 H   0  0  0  0  0  0  0  0  0  0  0  0
    9.1174    4.4531    0.0000 H   0  0  0  0  0  0  0  0  0  0  0  0
    9.7108    5.2812    0.0000 H   0  0  0  0  0  0  0  0  0  0  0  0
    9.0475    6.0543    0.0000 H   0  0  0  0  0  0  0  0  0  0  0  0
    8.5163    2.8579    0.0000 H   0  0  0  0  0  0  0  0  0  0  0  0
    9.2568    2.8579    0.0000 H   0  0  0  0  0  0  0  0  0  0  0  0
   10.0898    4.6724    0.0000 H   0  0  0  0  0  0  0  0  0  0  0  0
    9.9453    2.8579    0.0000 H   0  0  0  0  0  0  0  0  0  0  0  0
   10.6858    2.8579    0.0000 H   0  0  0  0  0  0  0  0  0  0  0  0
   10.3155    4.4202    0.0000 H   0  0  0  0  0  0  0  0  0  0  0  0
   10.7500    5.6087    0.0000 H   0  0  0  0  0  0  0  0  0  0  0  0
   11.7445    4.4202    0.0000 H   0  0  0  0  0  0  0  0  0  0  0  0
   12.5414    5.0316    0.0000 H   0  0  0  0  0  0  0  0  0  0  0  0
   12.1570    5.9596    0.0000 H   0  0  0  0  0  0  0  0  0  0  0  0
   11.1611    5.8285    0.0000 H   0  0  0  0  0  0  0  0  0  0  0  0
   11.3742    2.8579    0.0000 H   0  0  0  0  0  0  0  0  0  0  0  0
   12.1147    2.8579    0.0000 H   0  0  0  0  0  0  0  0  0  0  0  0
   13.0909    4.5380    0.0000 H   0  0  0  0  0  0  0  0  0  0  0  0
   12.6022    4.8201    0.0000 H   0  0  0  0  0  0  0  0  0  0  0  0
   12.8032    2.8579    0.0000 H   0  0  0  0  0  0  0  0  0  0  0  0
   13.5437    2.8579    0.0000 H   0  0  0  0  0  0  0  0  0  0  0  0
   14.0887    3.2075    0.0000 H   0  0  0  0  0  0  0  0  0  0  0  0
   14.7125    3.9815    0.0000 H   0  0  0  0  0  0  0  0  0  0  0  0
   14.1391    4.7935    0.0000 H   0  0  0  0  0  0  0  0  0  0  0  0
  1  2  1  0  0  0  0
  2  3  1  0  0  0  0
  3  4  1  0  0  0  0
  4  5  1  0  0  0  0
  5  6  1  0  0  0  0
  6  7  1  0  0  0  0
  5  8  1  0  0  0  0
  8  9  1  0  0  0  0
  9 10  1  0  0  0  0
 10 11  1  0  0  0  0
 11 12  1  0  0  0  0
 12 13  1  0  0  0  0
 11 14  1  0  0  0  0
 14 15  1  0  0  0  0
 15 16  1  0  0  0  0
 16 17  1  0  0  0  0
  1 18  1  0  0  0  0
  1 19  1  0  0  0  0
  1 20  1  0  0  0  0
  2 21  1  0  0  0  0
  2 22  1  0  0  0  0
  3 23  1  0  0  0  0
  3 24  1  0  0  0  0
  4 25  1  0  0  0  0
  4 26  1  0  0  0  0
  5 27  1  0  0  0  0
  6 28  1  0  0  0  0
  6 29  1  0  0  0  0
  7 30  1  0  0  0  0
  7 31  1  0  0  0  0
  7 32  1  0  0  0  0
  8 33  1  0  0  0  0
  8 34  1  0  0  0  0
  9 35  1  0  0  0  0
 10 36  1  0  0  0  0
 10 37  1  0  0  0  0
 11 38  1  0  0  0  0
 12 39  1  0  0  0  0
 12 40  1  0  0  0  0
 13 41  1  0  0  0  0
 13 42  1  0  0  0  0
 13 43  1  0  0  0  0
 14 44  1  0  0  0  0
 14 45  1  0  0  0  0
 15 46  1  0  0  0  0
 15 47  1  0  0  0  0
 16 48  1  0  0  0  0
 16 49  1  0  0  0  0
 17 50  1  0  0  0  0
 17 51  1  0  0  0  0
 17 52  1  0  0  0  0
M  END
> <id>
2649

> <casrn>
106-20-7

> <smiles (First)>


> <Molecular weight>
241.455810546875

> <name>
bis(2-ethylhexyl)amine

> <Outcome>
1

> <Molecule (RDKit Mol) (InChI Code)>
InChI=1S/C16H35N/c1-5-9-11-15(7-3)13-17-14-16(8-4)12-10-6-2/h15-17H,5-14H2,1-4H3

> <reference>
ECHA

> <molecule_form>
A

$$$$

  Mrv1812 01171911372D          

 22 23  0  0  0  0            999 V2000
    0.0000   -3.3000    0.0000 O   0  0  0  0  0  0  0  0  0  0  0  0
    0.7145   -2.8875    0.0000 C   0  0  0  0  0  0  0  0  0  0  0  0
    1.4289   -2.4750    0.0000 N   0  0  0  0  0  0  0  0  0  0  0  0
    1.4289   -1.6500    0.0000 C   0  0  0  0  0  0  0  0  0  0  0  0
    0.7145   -1.2375    0.0000 C   0  0  0  0  0  0  0  0  0  0  0  0
    0.7145   -0.4125    0.0000 C   0  0  0  0  0  0  0  0  0  0  0  0
    1.4289   -0.0000    0.0000 C   0  0  0  0  0  0  0  0  0  0  0  0
    2.1434   -0.4125    0.0000 C   0  0  0  0  0  0  0  0  0  0  0  0
    2.8579   -0.0000    0.0000 C   0  0  0  0  0  0  0  0  0  0  0  0
    2.8579    0.8250    0.0000 N   0  0  0  0  0  0  0  0  0  0  0  0
    2.1434    1.2375    0.0000 C   0  0  0  0  0  0  0  0  0  0  0  0
    1.4289    1.6500    0.0000 O   0  0  0  0  0  0  0  0  0  0  0  0
    3.5724   -0.4125    0.0000 C   0  0  0  0  0  0  0  0  0  0  0  0
    3.5724   -1.2375    0.0000 C   0  0  0  0  0  0  0  0  0  0  0  0
    2.8579   -1.6500    0.0000 C   0  0  0  0  0  0  0  0  0  0  0  0
    2.1434   -1.2375    0.0000 C   0  0  0  0  0  0  0  0  0  0  0  0
    0.0000   -1.6500    0.0000 H   0  0  0  0  0  0  0  0  0  0  0  0
    0.0000   -0.0000    0.0000 H   0  0  0  0  0  0  0  0  0  0  0  0
    1.4289    0.8250    0.0000 H   0  0  0  0  0  0  0  0  0  0  0  0
    4.2868   -0.0000    0.0000 H   0  0  0  0  0  0  0  0  0  0  0  0
    4.2868   -1.6500    0.0000 H   0  0  0  0  0  0  0  0  0  0  0  0
    2.8579   -2.4750    0.0000 H   0  0  0  0  0  0  0  0  0  0  0  0
  1  2  2  0  0  0  0
  2  3  2  0  0  0  0
  3  4  1  0  0  0  0
  4  5  4  0  0  0  0
  5  6  4  0  0  0  0
  6  7  4  0  0  0  0
  7  8  4  0  0  0  0
  8  9  4  0  0  0  0
  9 10  1  0  0  0  0
 10 11  2  0  0  0  0
 11 12  2  0  0  0  0
  9 13  4  0  0  0  0
 13 14  4  0  0  0  0
 14 15  4  0  0  0  0
 15 16  4  0  0  0  0
  4 16  4  0  0  0  0
  8 16  4  0  0  0  0
  5 17  1  0  0  0  0
  6 18  1  0  0  0  0
  7 19  1  0  0  0  0
 13 20  1  0  0  0  0
 14 21  1  0  0  0  0
 15 22  1  0  0  0  0
M  END
> <id>
1072; 1073

> <casrn>
3173-72-6

> <smiles (First)>


> <Molecular weight>
210.18824768066406

> <name>
1,5-diisocyanatonaphthalene

> <Outcome>
1

> <Molecule (RDKit Mol) (InChI Code)>
InChI=1S/C12H6N2O2/c15-7-13-11-5-1-3-9-10(11)4-2-6-12(9)14-8-16/h1-6H

> <reference>
ECHA

> <molecule_form>
A

$$$$

  Mrv1812 01171911372D          

 60 63  0  0  0  0            999 V2000
    6.2992   -1.1918    0.0000 C   0  0  0  0  0  0  0  0  0  0  0  0
    5.5847   -1.6043    0.0000 C   0  0  0  0  0  0  0  0  0  0  0  0
    4.8703   -1.1918    0.0000 C   0  0  0  0  0  0  0  0  0  0  0  0
    4.1558   -1.6043    0.0000 C   0  0  0  0  0  0  0  0  0  0  0  0
    3.4413   -1.1918    0.0000 N   0  0  0  0  0  0  0  0  0  0  0  0
    3.4413   -0.3668    0.0000 C   0  0  0  0  0  0  0  0  0  0  0  0
    4.1558    0.0457    0.0000 C   0  0  0  0  0  0  0  0  0  0  0  0
    4.1558    0.8707    0.0000 C   0  0  0  0  0  0  0  0  0  0  0  0
    4.8703    1.2832    0.0000 S   0  0  0  0  0  0  0  0  0  0  0  0
    5.5847    1.6957    0.0000 O   0  0  0  0  0  0  0  0  0  0  0  0
    4.4578    1.9976    0.0000 O   0  0  0  0  0  0  0  0  0  0  0  0
    5.2828    0.5687    0.0000 O   0  0  0  0  0  0  0  0  0  0  0  0
    3.4413    1.2832    0.0000 C   0  0  0  0  0  0  0  0  0  0  0  0
    3.4413    2.1082    0.0000 N   0  0  0  0  0  0  0  0  0  0  0  0
    2.7269    0.8707    0.0000 C   0  0  0  0  0  0  0  0  0  0  0  0
    2.7269    0.0457    0.0000 C   0  0  0  0  0  0  0  0  0  0  0  0
    2.0124   -0.3668    0.0000 C   0  0  0  0  0  0  0  0  0  0  0  0
    2.0124   -1.1918    0.0000 O   0  0  0  0  0  0  0  0  0  0  0  0
    1.2979    0.0457    0.0000 C   0  0  0  0  0  0  0  0  0  0  0  0
    0.5835   -0.3668    0.0000 C   0  0  0  0  0  0  0  0  0  0  0  0
   -0.1310    0.0457    0.0000 C   0  0  0  0  0  0  0  0  0  0  0  0
   -0.1310    0.8707    0.0000 C   0  0  0  0  0  0  0  0  0  0  0  0
    0.5835    1.2832    0.0000 C   0  0  0  0  0  0  0  0  0  0  0  0
    1.2979    0.8707    0.0000 C   0  0  0  0  0  0  0  0  0  0  0  0
    2.0124    1.2832    0.0000 C   0  0  0  0  0  0  0  0  0  0  0  0
    2.0124    2.1082    0.0000 O   0  0  0  0  0  0  0  0  0  0  0  0
    4.1558   -2.4293    0.0000 C   0  0  0  0  0  0  0  0  0  0  0  0
    4.8703   -2.8418    0.0000 C   0  0  0  0  0  0  0  0  0  0  0  0
    4.8703   -3.6668    0.0000 S   0  0  0  0  0  0  0  0  0  0  0  0
    4.0453   -3.6668    0.0000 O   0  0  0  0  0  0  0  0  0  0  0  0
    5.6953   -3.6668    0.0000 O   0  0  0  0  0  0  0  0  0  0  0  0
    4.8703   -4.4918    0.0000 N   0  0  0  0  0  0  0  0  0  0  0  0
    5.5847   -4.9043    0.0000 C   0  0  0  0  0  0  0  0  0  0  0  0
    5.5847   -5.7293    0.0000 C   0  0  0  0  0  0  0  0  0  0  0  0
    6.2992   -6.1418    0.0000 O   0  0  0  0  0  0  0  0  0  0  0  0
    5.5847   -2.4293    0.0000 C   0  0  0  0  0  0  0  0  0  0  0  0
    6.2992   -2.8418    0.0000 C   0  0  0  0  0  0  0  0  0  0  0  0
    6.7117   -1.9063    0.0000 H   0  0  0  0  0  0  0  0  0  0  0  0
    7.0137   -0.7793    0.0000 H   0  0  0  0  0  0  0  0  0  0  0  0
    5.8867   -0.4774    0.0000 H   0  0  0  0  0  0  0  0  0  0  0  0
    4.8703   -0.3668    0.0000 H   0  0  0  0  0  0  0  0  0  0  0  0
    2.7269   -1.6043    0.0000 H   0  0  0  0  0  0  0  0  0  0  0  0
    4.1558   -0.7793    0.0000 H   0  0  0  0  0  0  0  0  0  0  0  0
    4.8703   -0.1458    0.0000 H   0  0  0  0  0  0  0  0  0  0  0  0
    4.1558    2.5207    0.0000 H   0  0  0  0  0  0  0  0  0  0  0  0
    2.7269    2.5207    0.0000 H   0  0  0  0  0  0  0  0  0  0  0  0
    0.5835   -1.1918    0.0000 H   0  0  0  0  0  0  0  0  0  0  0  0
   -0.8455   -0.3668    0.0000 H   0  0  0  0  0  0  0  0  0  0  0  0
   -0.8455    1.2832    0.0000 H   0  0  0  0  0  0  0  0  0  0  0  0
    0.5835    2.1082    0.0000 H   0  0  0  0  0  0  0  0  0  0  0  0
    3.4413   -2.8418    0.0000 H   0  0  0  0  0  0  0  0  0  0  0  0
    4.1558   -4.9043    0.0000 H   0  0  0  0  0  0  0  0  0  0  0  0
    6.4084   -4.8564    0.0000 H   0  0  0  0  0  0  0  0  0  0  0  0
    6.0381   -4.2151    0.0000 H   0  0  0  0  0  0  0  0  0  0  0  0
    4.7611   -5.7773    0.0000 H   0  0  0  0  0  0  0  0  0  0  0  0
    5.1314   -6.4186    0.0000 H   0  0  0  0  0  0  0  0  0  0  0  0
    6.2992   -6.9668    0.0000 H   0  0  0  0  0  0  0  0  0  0  0  0
    5.8867   -3.5563    0.0000 H   0  0  0  0  0  0  0  0  0  0  0  0
    7.0137   -3.2543    0.0000 H   0  0  0  0  0  0  0  0  0  0  0  0
    6.7117   -2.1274    0.0000 H   0  0  0  0  0  0  0  0  0  0  0  0
  1  2  1  0  0  0  0
  2  3  4  0  0  0  0
  3  4  4  0  0  0  0
  4  5  1  0  0  0  0
  5  6  1  0  0  0  0
  6  7  4  0  0  0  0
  7  8  4  0  0  0  0
  8  9  1  0  0  0  0
  9 10  2  0  0  0  0
  9 11  2  0  0  0  0
  9 12  1  0  0  0  0
  8 13  4  0  0  0  0
 13 14  1  0  0  0  0
 13 15  4  0  0  0  0
 15 16  4  0  0  0  0
  6 16  4  0  0  0  0
 16 17  1  0  0  0  0
 17 18  2  0  0  0  0
 17 19  1  0  0  0  0
 19 20  4  0  0  0  0
 20 21  4  0  0  0  0
 21 22  4  0  0  0  0
 22 23  4  0  0  0  0
 23 24  4  0  0  0  0
 19 24  4  0  0  0  0
 24 25  1  0  0  0  0
 15 25  1  0  0  0  0
 25 26  2  0  0  0  0
  4 27  4  0  0  0  0
 27 28  4  0  0  0  0
 28 29  1  0  0  0  0
 29 30  2  0  0  0  0
 29 31  2  0  0  0  0
 29 32  1  0  0  0  0
 32 33  1  0  0  0  0
 33 34  1  0  0  0  0
 34 35  1  0  0  0  0
 28 36  4  0  0  0  0
  2 36  4  0  0  0  0
 36 37  1  0  0  0  0
  1 38  1  0  0  0  0
  1 39  1  0  0  0  0
  1 40  1  0  0  0  0
  3 41  1  0  0  0  0
  5 42  1  0  0  0  0
  7 43  1  0  0  0  0
 12 44  1  0  0  0  0
 14 45  1  0  0  0  0
 14 46  1  0  0  0  0
 20 47  1  0  0  0  0
 21 48  1  0  0  0  0
 22 49  1  0  0  0  0
 23 50  1  0  0  0  0
 27 51  1  0  0  0  0
 32 52  1  0  0  0  0
 33 53  1  0  0  0  0
 33 54  1  0  0  0  0
 34 55  1  0  0  0  0
 34 56  1  0  0  0  0
 35 57  1  0  0  0  0
 37 58  1  0  0  0  0
 37 59  1  0  0  0  0
 37 60  1  0  0  0  0
M  END
> <id>
3843

> <casrn>
25797-81-3

> <smiles (First)>


> <Molecular weight>
544.5767822265625

> <name>
sodium 1-amino-4-({3-[(2-hydroxyethyl)sulfamoyl]-4,5-dimethylphenyl}amino)-9,10-dioxo-9,10-dihydroanthracene-2-sulfonate

> <Outcome>
0

> <Molecule (RDKit Mol) (InChI Code)>
InChI=1S/C24H23N3O8S2/c1-12-9-14(10-18(13(12)2)36(31,32)26-7-8-28)27-17-11-19(37(33,34)35)22(25)21-20(17)23(29)15-5-3-4-6-16(15)24(21)30/h3-6,9-11,26-28H,7-8,25H2,1-2H3,(H,33,34,35)

> <reference>
ECHA

> <molecule_form>
A

$$$$

  Mrv1812 01171911372D          

 32 31  0  0  0  0            999 V2000
    0.7213   -2.9947    0.0000 C   0  0  0  0  0  0  0  0  0  0  0  0
    1.2614   -3.6183    0.0000 C   0  0  0  0  0  0  0  0  0  0  0  0
    0.9914   -4.3979    0.0000 C   0  0  0  0  0  0  0  0  0  0  0  0
    2.0716   -3.4624    0.0000 C   0  0  0  0  0  0  0  0  0  0  0  0
    2.3416   -2.6828    0.0000 O   0  0  0  0  0  0  0  0  0  0  0  0
    2.6116   -4.0860    0.0000 O   0  0  0  0  0  0  0  0  0  0  0  0
    3.4218   -3.9301    0.0000 C   0  0  0  0  0  0  0  0  0  0  0  0
    3.9619   -4.5538    0.0000 C   0  0  0  0  0  0  0  0  0  0  0  0
    4.7720   -4.3979    0.0000 N   0  0  0  0  0  0  0  0  0  0  0  0
    5.3121   -5.0215    0.0000 C   0  0  0  0  0  0  0  0  0  0  0  0
    6.1222   -4.8656    0.0000 C   0  0  0  0  0  0  0  0  0  0  0  0
    5.0421   -3.6183    0.0000 C   0  0  0  0  0  0  0  0  0  0  0  0
    5.8522   -3.4624    0.0000 C   0  0  0  0  0  0  0  0  0  0  0  0
    0.9914   -2.2151    0.0000 H   0  0  0  0  0  0  0  0  0  0  0  0
   -0.0888   -3.1506    0.0000 H   0  0  0  0  0  0  0  0  0  0  0  0
    0.2118   -4.1278    0.0000 H   0  0  0  0  0  0  0  0  0  0  0  0
    0.7213   -5.1774    0.0000 H   0  0  0  0  0  0  0  0  0  0  0  0
    1.7709   -4.6679    0.0000 H   0  0  0  0  0  0  0  0  0  0  0  0
    4.0130   -3.3547    0.0000 H   0  0  0  0  0  0  0  0  0  0  0  0
    3.3132   -3.1123    0.0000 H   0  0  0  0  0  0  0  0  0  0  0  0
    3.3707   -5.1292    0.0000 H   0  0  0  0  0  0  0  0  0  0  0  0
    4.0704   -5.3716    0.0000 H   0  0  0  0  0  0  0  0  0  0  0  0
    4.7209   -5.5969    0.0000 H   0  0  0  0  0  0  0  0  0  0  0  0
    5.4206   -5.8393    0.0000 H   0  0  0  0  0  0  0  0  0  0  0  0
    6.2781   -5.6757    0.0000 H   0  0  0  0  0  0  0  0  0  0  0  0
    6.9324   -4.7097    0.0000 H   0  0  0  0  0  0  0  0  0  0  0  0
    5.9663   -4.0555    0.0000 H   0  0  0  0  0  0  0  0  0  0  0  0
    4.8393   -2.8186    0.0000 H   0  0  0  0  0  0  0  0  0  0  0  0
    4.2795   -3.3034    0.0000 H   0  0  0  0  0  0  0  0  0  0  0  0
    6.6603   -3.6284    0.0000 H   0  0  0  0  0  0  0  0  0  0  0  0
    6.3148   -2.7793    0.0000 H   0  0  0  0  0  0  0  0  0  0  0  0
    5.3981   -2.7736    0.0000 H   0  0  0  0  0  0  0  0  0  0  0  0
  1  2  2  0  0  0  0
  2  3  1  0  0  0  0
  2  4  1  0  0  0  0
  4  5  2  0  0  0  0
  4  6  1  0  0  0  0
  6  7  1  0  0  0  0
  7  8  1  0  0  0  0
  8  9  1  0  0  0  0
  9 10  1  0  0  0  0
 10 11  1  0  0  0  0
  9 12  1  0  0  0  0
 12 13  1  0  0  0  0
  1 14  1  0  0  0  0
  1 15  1  0  0  0  0
  3 16  1  0  0  0  0
  3 17  1  0  0  0  0
  3 18  1  0  0  0  0
  7 19  1  0  0  0  0
  7 20  1  0  0  0  0
  8 21  1  0  0  0  0
  8 22  1  0  0  0  0
 10 23  1  0  0  0  0
 10 24  1  0  0  0  0
 11 25  1  0  0  0  0
 11 26  1  0  0  0  0
 11 27  1  0  0  0  0
 12 28  1  0  0  0  0
 12 29  1  0  0  0  0
 13 30  1  0  0  0  0
 13 31  1  0  0  0  0
 13 32  1  0  0  0  0
M  END
> <id>
1338

> <casrn>
105-16-8

> <smiles (First)>


> <Molecular weight>
185.26336669921875

> <name>
2-(diethylamino)ethyl 2-methylprop-2-enoate

> <Outcome>
1

> <Molecule (RDKit Mol) (InChI Code)>
InChI=1S/C10H19NO2/c1-5-11(6-2)7-8-13-10(12)9(3)4/h3,5-8H2,1-2,4H3

> <reference>
ECHA

> <molecule_form>
A

$$$$

  Mrv1812 01171911372D          

 66 65  0  0  0  0            999 V2000
    9.7086    6.4308    0.0000 C   0  0  0  0  0  0  0  0  0  0  0  0
   10.4230    6.8433    0.0000 C   0  0  0  0  0  0  0  0  0  0  0  0
   11.1375    6.4308    0.0000 C   0  0  0  0  0  0  0  0  0  0  0  0
   11.8520    6.8433    0.0000 C   0  0  0  0  0  0  0  0  0  0  0  0
   12.5664    6.4308    0.0000 C   0  0  0  0  0  0  0  0  0  0  0  0
   13.2809    6.8433    0.0000 C   0  0  0  0  0  0  0  0  0  0  0  0
   13.9954    6.4308    0.0000 C   0  0  0  0  0  0  0  0  0  0  0  0
   14.7099    6.8433    0.0000 C   0  0  0  0  0  0  0  0  0  0  0  0
   15.4243    6.4308    0.0000 C   0  0  0  0  0  0  0  0  0  0  0  0
   16.1388    6.8433    0.0000 C   0  0  0  0  0  0  0  0  0  0  0  0
   16.8533    6.4308    0.0000 C   0  0  0  0  0  0  0  0  0  0  0  0
   17.5677    6.8433    0.0000 C   0  0  0  0  0  0  0  0  0  0  0  0
   18.2822    6.4308    0.0000 C   0  0  0  0  0  0  0  0  0  0  0  0
   18.9967    6.8433    0.0000 C   0  0  0  0  0  0  0  0  0  0  0  0
   19.7112    6.4308    0.0000 C   0  0  0  0  0  0  0  0  0  0  0  0
   20.4256    6.8433    0.0000 C   0  0  0  0  0  0  0  0  0  0  0  0
   21.1401    6.4308    0.0000 C   0  0  0  0  0  0  0  0  0  0  0  0
   21.8546    6.8433    0.0000 C   0  0  0  0  0  0  0  0  0  0  0  0
   22.5690    6.4308    0.0000 C   0  0  0  0  0  0  0  0  0  0  0  0
   23.2835    6.8433    0.0000 C   0  0  0  0  0  0  0  0  0  0  0  0
   23.9980    6.4308    0.0000 C   0  0  0  0  0  0  0  0  0  0  0  0
   24.7124    6.8433    0.0000 C   0  0  0  0  0  0  0  0  0  0  0  0
    8.9941    6.8433    0.0000 H   0  0  0  0  0  0  0  0  0  0  0  0
    9.7086    5.6058    0.0000 H   0  0  0  0  0  0  0  0  0  0  0  0
   10.4230    7.6683    0.0000 H   0  0  0  0  0  0  0  0  0  0  0  0
   10.7672    5.6935    0.0000 H   0  0  0  0  0  0  0  0  0  0  0  0
   11.5078    5.6935    0.0000 H   0  0  0  0  0  0  0  0  0  0  0  0
   12.2222    7.5805    0.0000 H   0  0  0  0  0  0  0  0  0  0  0  0
   11.4817    7.5805    0.0000 H   0  0  0  0  0  0  0  0  0  0  0  0
   12.1962    5.6935    0.0000 H   0  0  0  0  0  0  0  0  0  0  0  0
   12.9367    5.6935    0.0000 H   0  0  0  0  0  0  0  0  0  0  0  0
   13.6512    7.5805    0.0000 H   0  0  0  0  0  0  0  0  0  0  0  0
   12.9107    7.5805    0.0000 H   0  0  0  0  0  0  0  0  0  0  0  0
   13.6251    5.6935    0.0000 H   0  0  0  0  0  0  0  0  0  0  0  0
   14.3656    5.6935    0.0000 H   0  0  0  0  0  0  0  0  0  0  0  0
   15.0801    7.5805    0.0000 H   0  0  0  0  0  0  0  0  0  0  0  0
   14.3396    7.5805    0.0000 H   0  0  0  0  0  0  0  0  0  0  0  0
   15.0541    5.6935    0.0000 H   0  0  0  0  0  0  0  0  0  0  0  0
   15.7946    5.6935    0.0000 H   0  0  0  0  0  0  0  0  0  0  0  0
   16.5091    7.5805    0.0000 H   0  0  0  0  0  0  0  0  0  0  0  0
   15.7685    7.5805    0.0000 H   0  0  0  0  0  0  0  0  0  0  0  0
   16.4830    5.6935    0.0000 H   0  0  0  0  0  0  0  0  0  0  0  0
   17.2235    5.6935    0.0000 H   0  0  0  0  0  0  0  0  0  0  0  0
   17.9380    7.5805    0.0000 H   0  0  0  0  0  0  0  0  0  0  0  0
   17.1975    7.5805    0.0000 H   0  0  0  0  0  0  0  0  0  0  0  0
   17.9120    5.6935    0.0000 H   0  0  0  0  0  0  0  0  0  0  0  0
   18.6525    5.6935    0.0000 H   0  0  0  0  0  0  0  0  0  0  0  0
   19.3669    7.5805    0.0000 H   0  0  0  0  0  0  0  0  0  0  0  0
   18.6264    7.5805    0.0000 H   0  0  0  0  0  0  0  0  0  0  0  0
   19.3409    5.6935    0.0000 H   0  0  0  0  0  0  0  0  0  0  0  0
   20.0814    5.6935    0.0000 H   0  0  0  0  0  0  0  0  0  0  0  0
   20.7959    7.5805    0.0000 H   0  0  0  0  0  0  0  0  0  0  0  0
   20.0554    7.5805    0.0000 H   0  0  0  0  0  0  0  0  0  0  0  0
   20.7698    5.6935    0.0000 H   0  0  0  0  0  0  0  0  0  0  0  0
   21.5104    5.6935    0.0000 H   0  0  0  0  0  0  0  0  0  0  0  0
   22.2248    7.5805    0.0000 H   0  0  0  0  0  0  0  0  0  0  0  0
   21.4843    7.5805    0.0000 H   0  0  0  0  0  0  0  0  0  0  0  0
   22.1988    5.6935    0.0000 H   0  0  0  0  0  0  0  0  0  0  0  0
   22.9393    5.6935    0.0000 H   0  0  0  0  0  0  0  0  0  0  0  0
   23.6538    7.5805    0.0000 H   0  0  0  0  0  0  0  0  0  0  0  0
   22.9132    7.5805    0.0000 H   0  0  0  0  0  0  0  0  0  0  0  0
   23.6277    5.6935    0.0000 H   0  0  0  0  0  0  0  0  0  0  0  0
   24.3682    5.6935    0.0000 H   0  0  0  0  0  0  0  0  0  0  0  0
   25.1249    6.1288    0.0000 H   0  0  0  0  0  0  0  0  0  0  0  0
   25.4269    7.2558    0.0000 H   0  0  0  0  0  0  0  0  0  0  0  0
   24.2999    7.5577    0.0000 H   0  0  0  0  0  0  0  0  0  0  0  0
  1  2  2  0  0  0  0
  2  3  1  0  0  0  0
  3  4  1  0  0  0  0
  4  5  1  0  0  0  0
  5  6  1  0  0  0  0
  6  7  1  0  0  0  0
  7  8  1  0  0  0  0
  8  9  1  0  0  0  0
  9 10  1  0  0  0  0
 10 11  1  0  0  0  0
 11 12  1  0  0  0  0
 12 13  1  0  0  0  0
 13 14  1  0  0  0  0
 14 15  1  0  0  0  0
 15 16  1  0  0  0  0
 16 17  1  0  0  0  0
 17 18  1  0  0  0  0
 18 19  1  0  0  0  0
 19 20  1  0  0  0  0
 20 21  1  0  0  0  0
 21 22  1  0  0  0  0
  1 23  1  0  0  0  0
  1 24  1  0  0  0  0
  2 25  1  0  0  0  0
  3 26  1  0  0  0  0
  3 27  1  0  0  0  0
  4 28  1  0  0  0  0
  4 29  1  0  0  0  0
  5 30  1  0  0  0  0
  5 31  1  0  0  0  0
  6 32  1  0  0  0  0
  6 33  1  0  0  0  0
  7 34  1  0  0  0  0
  7 35  1  0  0  0  0
  8 36  1  0  0  0  0
  8 37  1  0  0  0  0
  9 38  1  0  0  0  0
  9 39  1  0  0  0  0
 10 40  1  0  0  0  0
 10 41  1  0  0  0  0
 11 42  1  0  0  0  0
 11 43  1  0  0  0  0
 12 44  1  0  0  0  0
 12 45  1  0  0  0  0
 13 46  1  0  0  0  0
 13 47  1  0  0  0  0
 14 48  1  0  0  0  0
 14 49  1  0  0  0  0
 15 50  1  0  0  0  0
 15 51  1  0  0  0  0
 16 52  1  0  0  0  0
 16 53  1  0  0  0  0
 17 54  1  0  0  0  0
 17 55  1  0  0  0  0
 18 56  1  0  0  0  0
 18 57  1  0  0  0  0
 19 58  1  0  0  0  0
 19 59  1  0  0  0  0
 20 60  1  0  0  0  0
 20 61  1  0  0  0  0
 21 62  1  0  0  0  0
 21 63  1  0  0  0  0
 22 64  1  0  0  0  0
 22 65  1  0  0  0  0
 22 66  1  0  0  0  0
M  END
> <id>
1956; 1952

> <casrn>
93924-10-8

> <smiles (First)>


> <Molecular weight>
308.58477783203125

> <name>
Alkenes, C20-24 ??-

> <Outcome>
0

> <Molecule (RDKit Mol) (InChI Code)>
InChI=1S/C22H44/c1-3-5-7-9-11-13-15-17-19-21-22-20-18-16-14-12-10-8-6-4-2/h3H,1,4-22H2,2H3

> <reference>
ECHA

> <molecule_form>
V

$$$$

  Mrv1812 01171911372D          

 58 61  0  0  0  0            999 V2000
    2.1313   -6.9199    0.0000 O   0  0  0  0  0  0  0  0  0  0  0  0
    2.1313   -7.7449    0.0000 S   0  0  0  0  0  0  0  0  0  0  0  0
    1.3063   -7.7449    0.0000 O   0  0  0  0  0  0  0  0  0  0  0  0
    2.9563   -7.7449    0.0000 O   0  0  0  0  0  0  0  0  0  0  0  0
    2.1313   -8.5699    0.0000 C   0  0  0  0  0  0  0  0  0  0  0  0
    2.8457   -8.9824    0.0000 C   0  0  0  0  0  0  0  0  0  0  0  0
    2.8457   -9.8074    0.0000 C   0  0  0  0  0  0  0  0  0  0  0  0
    2.1313  -10.2199    0.0000 C   0  0  0  0  0  0  0  0  0  0  0  0
    1.4168   -9.8074    0.0000 C   0  0  0  0  0  0  0  0  0  0  0  0
    1.4168   -8.9824    0.0000 C   0  0  0  0  0  0  0  0  0  0  0  0
    0.7023   -8.5699    0.0000 C   0  0  0  0  0  0  0  0  0  0  0  0
   -0.0122   -8.9824    0.0000 C   0  0  0  0  0  0  0  0  0  0  0  0
   -0.7266   -8.5699    0.0000 C   0  0  0  0  0  0  0  0  0  0  0  0
   -1.4411   -8.9824    0.0000 C   0  0  0  0  0  0  0  0  0  0  0  0
   -2.1556   -8.5699    0.0000 C   0  0  0  0  0  0  0  0  0  0  0  0
   -2.1556   -7.7449    0.0000 C   0  0  0  0  0  0  0  0  0  0  0  0
   -2.8700   -7.3324    0.0000 C   0  0  0  0  0  0  0  0  0  0  0  0
   -3.5845   -7.7449    0.0000 C   0  0  0  0  0  0  0  0  0  0  0  0
   -4.2990   -7.3324    0.0000 C   0  0  0  0  0  0  0  0  0  0  0  0
   -4.2990   -6.5074    0.0000 C   0  0  0  0  0  0  0  0  0  0  0  0
   -5.0134   -6.0949    0.0000 C   0  0  0  0  0  0  0  0  0  0  0  0
   -5.7279   -6.5074    0.0000 C   0  0  0  0  0  0  0  0  0  0  0  0
   -6.4424   -6.0949    0.0000 C   0  0  0  0  0  0  0  0  0  0  0  0
   -7.1569   -6.5074    0.0000 C   0  0  0  0  0  0  0  0  0  0  0  0
   -7.8713   -6.0949    0.0000 C   0  0  0  0  0  0  0  0  0  0  0  0
   -7.8713   -5.2699    0.0000 C   0  0  0  0  0  0  0  0  0  0  0  0
   -7.1569   -4.8574    0.0000 C   0  0  0  0  0  0  0  0  0  0  0  0
   -6.4424   -5.2699    0.0000 C   0  0  0  0  0  0  0  0  0  0  0  0
   -5.7279   -4.8574    0.0000 S   0  0  0  0  0  0  0  0  0  0  0  0
   -5.0134   -4.4449    0.0000 O   0  0  0  0  0  0  0  0  0  0  0  0
   -5.3154   -5.5718    0.0000 O   0  0  0  0  0  0  0  0  0  0  0  0
   -6.1404   -4.1429    0.0000 O   0  0  0  0  0  0  0  0  0  0  0  0
   -3.5845   -6.0949    0.0000 C   0  0  0  0  0  0  0  0  0  0  0  0
   -2.8700   -6.5074    0.0000 C   0  0  0  0  0  0  0  0  0  0  0  0
   -1.4411   -7.3324    0.0000 C   0  0  0  0  0  0  0  0  0  0  0  0
   -0.7266   -7.7449    0.0000 C   0  0  0  0  0  0  0  0  0  0  0  0
    3.3688   -8.4593    0.0000 H   0  0  0  0  0  0  0  0  0  0  0  0
    3.6079   -9.2981    0.0000 H   0  0  0  0  0  0  0  0  0  0  0  0
    3.2814  -10.5080    0.0000 H   0  0  0  0  0  0  0  0  0  0  0  0
    2.1313  -11.0449    0.0000 H   0  0  0  0  0  0  0  0  0  0  0  0
    0.7023  -10.2199    0.0000 H   0  0  0  0  0  0  0  0  0  0  0  0
    0.7023   -7.7449    0.0000 H   0  0  0  0  0  0  0  0  0  0  0  0
   -0.0122   -9.8074    0.0000 H   0  0  0  0  0  0  0  0  0  0  0  0
   -1.4411   -9.8074    0.0000 H   0  0  0  0  0  0  0  0  0  0  0  0
   -2.8700   -8.9824    0.0000 H   0  0  0  0  0  0  0  0  0  0  0  0
   -3.5845   -8.5699    0.0000 H   0  0  0  0  0  0  0  0  0  0  0  0
   -5.0134   -7.7449    0.0000 H   0  0  0  0  0  0  0  0  0  0  0  0
   -4.4301   -5.5115    0.0000 H   0  0  0  0  0  0  0  0  0  0  0  0
   -5.7279   -7.3324    0.0000 H   0  0  0  0  0  0  0  0  0  0  0  0
   -7.1569   -7.3324    0.0000 H   0  0  0  0  0  0  0  0  0  0  0  0
   -8.5858   -6.5074    0.0000 H   0  0  0  0  0  0  0  0  0  0  0  0
   -8.5858   -4.8574    0.0000 H   0  0  0  0  0  0  0  0  0  0  0  0
   -7.1569   -4.0324    0.0000 H   0  0  0  0  0  0  0  0  0  0  0  0
   -5.7279   -3.4284    0.0000 H   0  0  0  0  0  0  0  0  0  0  0  0
   -3.5845   -5.2699    0.0000 H   0  0  0  0  0  0  0  0  0  0  0  0
   -2.1556   -6.0949    0.0000 H   0  0  0  0  0  0  0  0  0  0  0  0
   -1.4411   -6.5074    0.0000 H   0  0  0  0  0  0  0  0  0  0  0  0
   -0.0122   -7.3324    0.0000 H   0  0  0  0  0  0  0  0  0  0  0  0
  1  2  2  0  0  0  0
  2  3  2  0  0  0  0
  2  4  1  0  0  0  0
  2  5  1  0  0  0  0
  5  6  4  0  0  0  0
  6  7  4  0  0  0  0
  7  8  4  0  0  0  0
  8  9  4  0  0  0  0
  9 10  4  0  0  0  0
  5 10  4  0  0  0  0
 11 10  1  4  0  0  0
 11 12  2  0  0  0  0
 12 13  1  0  0  0  0
 13 14  4  0  0  0  0
 14 15  4  0  0  0  0
 15 16  4  0  0  0  0
 16 17  1  0  0  0  0
 17 18  4  0  0  0  0
 18 19  4  0  0  0  0
 19 20  4  0  0  0  0
 21 20  1  4  0  0  0
 21 22  2  0  0  0  0
 22 23  1  0  0  0  0
 23 24  4  0  0  0  0
 24 25  4  0  0  0  0
 25 26  4  0  0  0  0
 26 27  4  0  0  0  0
 27 28  4  0  0  0  0
 23 28  4  0  0  0  0
 28 29  1  0  0  0  0
 29 30  2  0  0  0  0
 29 31  2  0  0  0  0
 29 32  1  0  0  0  0
 20 33  4  0  0  0  0
 33 34  4  0  0  0  0
 17 34  4  0  0  0  0
 16 35  4  0  0  0  0
 35 36  4  0  0  0  0
 13 36  4  0  0  0  0
  4 37  1  0  0  0  0
  6 38  1  0  0  0  0
  7 39  1  0  0  0  0
  8 40  1  0  0  0  0
  9 41  1  0  0  0  0
 11 42  1  0  0  0  0
 12 43  1  0  0  0  0
 14 44  1  0  0  0  0
 15 45  1  0  0  0  0
 18 46  1  0  0  0  0
 19 47  1  0  0  0  0
 21 48  1  0  0  0  0
 22 49  1  0  0  0  0
 24 50  1  0  0  0  0
 25 51  1  0  0  0  0
 26 52  1  0  0  0  0
 27 53  1  0  0  0  0
 32 54  1  0  0  0  0
 33 55  1  0  0  0  0
 34 56  1  0  0  0  0
 35 57  1  0  0  0  0
 36 58  1  0  0  0  0
M  END
> <id>
3033

> <casrn>
27344-41-8

> <smiles (First)>


> <Molecular weight>
516.5847778320312

> <name>
disodium 2-[(E)-2-(4-{4-[(E)-2-(2-sulfonatophenyl)ethenyl]phenyl}phenyl)ethenyl]benzene-1-sulfonate

> <Outcome>
1

> <Molecule (RDKit Mol) (InChI Code)>
InChI=1S/C28H22O6S2/c29-35(30,31)27-7-3-1-5-25(27)19-13-21-9-15-23(16-10-21)24-17-11-22(12-18-24)14-20-26-6-2-4-8-28(26)36(32,33)34/h1-20H,(H,29,30,31)(H,32,33,34)

> <reference>
ECHA

> <molecule_form>
A

$$$$

  Mrv1812 01171911372D          

 33 32  0  0  0  0            999 V2000
   -0.7882   -0.7013    0.0000 C   0  0  0  0  0  0  0  0  0  0  0  0
   -0.0737   -1.1138    0.0000 Si  0  0  0  0  0  0  0  0  0  0  0  0
   -0.0737   -1.9388    0.0000 O   0  0  0  0  0  0  0  0  0  0  0  0
   -0.7882   -2.3513    0.0000 Si  0  0  0  0  0  0  0  0  0  0  0  0
   -1.5027   -2.7638    0.0000 C   0  0  0  0  0  0  0  0  0  0  0  0
   -0.3757   -3.0658    0.0000 C   0  0  0  0  0  0  0  0  0  0  0  0
   -1.2007   -1.6369    0.0000 C   0  0  0  0  0  0  0  0  0  0  0  0
    0.6407   -0.7013    0.0000 O   0  0  0  0  0  0  0  0  0  0  0  0
    0.6407    0.1237    0.0000 Si  0  0  0  0  0  0  0  0  0  0  0  0
    0.6407    0.9487    0.0000 C   0  0  0  0  0  0  0  0  0  0  0  0
    1.4657    0.1237    0.0000 C   0  0  0  0  0  0  0  0  0  0  0  0
   -0.1843    0.1237    0.0000 C   0  0  0  0  0  0  0  0  0  0  0  0
   -0.3757    0.0131    0.0000 H   0  0  0  0  0  0  0  0  0  0  0  0
   -1.5027   -0.2888    0.0000 H   0  0  0  0  0  0  0  0  0  0  0  0
   -1.2007   -1.4158    0.0000 H   0  0  0  0  0  0  0  0  0  0  0  0
   -1.9152   -2.0494    0.0000 H   0  0  0  0  0  0  0  0  0  0  0  0
   -2.2171   -3.1763    0.0000 H   0  0  0  0  0  0  0  0  0  0  0  0
   -1.0902   -3.4783    0.0000 H   0  0  0  0  0  0  0  0  0  0  0  0
   -0.2680   -3.8838    0.0000 H   0  0  0  0  0  0  0  0  0  0  0  0
    0.4212   -3.2793    0.0000 H   0  0  0  0  0  0  0  0  0  0  0  0
    0.1265   -2.4113    0.0000 H   0  0  0  0  0  0  0  0  0  0  0  0
   -0.3882   -1.7801    0.0000 H   0  0  0  0  0  0  0  0  0  0  0  0
   -0.5687   -1.1066    0.0000 H   0  0  0  0  0  0  0  0  0  0  0  0
   -1.9152   -1.2244    0.0000 H   0  0  0  0  0  0  0  0  0  0  0  0
    1.4657    0.9487    0.0000 H   0  0  0  0  0  0  0  0  0  0  0  0
    0.6407    1.7737    0.0000 H   0  0  0  0  0  0  0  0  0  0  0  0
   -0.1843    0.9487    0.0000 H   0  0  0  0  0  0  0  0  0  0  0  0
    1.1500   -0.6385    0.0000 H   0  0  0  0  0  0  0  0  0  0  0  0
    2.0491   -0.4597    0.0000 H   0  0  0  0  0  0  0  0  0  0  0  0
    2.2279    0.4394    0.0000 H   0  0  0  0  0  0  0  0  0  0  0  0
   -0.3275   -0.6888    0.0000 H   0  0  0  0  0  0  0  0  0  0  0  0
    0.3460   -0.5083    0.0000 H   0  0  0  0  0  0  0  0  0  0  0  0
   -0.8987    0.5362    0.0000 H   0  0  0  0  0  0  0  0  0  0  0  0
  1  2  1  0  0  0  0
  2  3  1  0  0  0  0
  3  4  1  0  0  0  0
  4  5  1  0  0  0  0
  4  6  1  0  0  0  0
  4  7  1  0  0  0  0
  2  8  1  0  0  0  0
  8  9  1  0  0  0  0
  9 10  1  0  0  0  0
  9 11  1  0  0  0  0
  9 12  1  0  0  0  0
  1 13  1  0  0  0  0
  1 14  1  0  0  0  0
  1 15  1  0  0  0  0
  5 16  1  0  0  0  0
  5 17  1  0  0  0  0
  5 18  1  0  0  0  0
  6 19  1  0  0  0  0
  6 20  1  0  0  0  0
  6 21  1  0  0  0  0
  7 22  1  0  0  0  0
  7 23  1  0  0  0  0
  7 24  1  0  0  0  0
 10 25  1  0  0  0  0
 10 26  1  0  0  0  0
 10 27  1  0  0  0  0
 11 28  1  0  0  0  0
 11 29  1  0  0  0  0
 11 30  1  0  0  0  0
 12 31  1  0  0  0  0
 12 32  1  0  0  0  0
 12 33  1  0  0  0  0
M  RAD  1   2   2
M  END
> <id>
1252

> <casrn>
1873-88-7

> <smiles (First)>


> <Molecular weight>
221.4969482421875

> <name>
2,2,4,6,6-pentamethyl-3,5-dioxa-2,4,6-trisilaheptane

> <Outcome>
0

> <Molecule (RDKit Mol) (InChI Code)>
InChI=1S/C7H21O2Si3/c1-10(8-11(2,3)4)9-12(5,6)7/h1-7H3

> <reference>
ECHA

> <molecule_form>
V

$$$$

  Mrv1812 01171911372D          

 22 21  0  0  0  0            999 V2000
    1.2611    2.2888    0.0000 C   0  0  0  0  0  0  0  0  0  0  0  0
    0.8486    1.5743    0.0000 C   0  0  0  0  0  0  0  0  0  0  0  0
    0.0236    1.5743    0.0000 C   0  0  0  0  0  0  0  0  0  0  0  0
    1.2611    0.8598    0.0000 N   0  0  0  0  0  0  0  0  0  0  0  0
    0.8486    0.1454    0.0000 C   0  0  0  0  0  0  0  0  0  0  0  0
    1.2611   -0.5691    0.0000 C   0  0  0  0  0  0  0  0  0  0  0  0
    0.0236    0.1454    0.0000 C   0  0  0  0  0  0  0  0  0  0  0  0
    1.9756    1.8763    0.0000 H   0  0  0  0  0  0  0  0  0  0  0  0
    1.6736    3.0032    0.0000 H   0  0  0  0  0  0  0  0  0  0  0  0
    0.5467    2.7013    0.0000 H   0  0  0  0  0  0  0  0  0  0  0  0
    0.4361    2.2888    0.0000 H   0  0  0  0  0  0  0  0  0  0  0  0
   -0.5597    2.1577    0.0000 H   0  0  0  0  0  0  0  0  0  0  0  0
   -0.6908    1.1618    0.0000 H   0  0  0  0  0  0  0  0  0  0  0  0
    0.2371    0.7774    0.0000 H   0  0  0  0  0  0  0  0  0  0  0  0
    2.0861    0.8598    0.0000 H   0  0  0  0  0  0  0  0  0  0  0  0
    1.6736    0.1454    0.0000 H   0  0  0  0  0  0  0  0  0  0  0  0
    0.4642   -0.7826    0.0000 H   0  0  0  0  0  0  0  0  0  0  0  0
    1.2611   -1.3941    0.0000 H   0  0  0  0  0  0  0  0  0  0  0  0
    2.0580   -0.7826    0.0000 H   0  0  0  0  0  0  0  0  0  0  0  0
   -0.6396    0.6361    0.0000 H   0  0  0  0  0  0  0  0  0  0  0  0
   -0.6466   -0.3357    0.0000 H   0  0  0  0  0  0  0  0  0  0  0  0
    0.2763   -0.6400    0.0000 H   0  0  0  0  0  0  0  0  0  0  0  0
  1  2  1  0  0  0  0
  2  3  1  0  0  0  0
  2  4  1  0  0  0  0
  4  5  1  0  0  0  0
  5  6  1  0  0  0  0
  5  7  1  0  0  0  0
  1  8  1  0  0  0  0
  1  9  1  0  0  0  0
  1 10  1  0  0  0  0
  2 11  1  0  0  0  0
  3 12  1  0  0  0  0
  3 13  1  0  0  0  0
  3 14  1  0  0  0  0
  4 15  1  0  0  0  0
  5 16  1  0  0  0  0
  6 17  1  0  0  0  0
  6 18  1  0  0  0  0
  6 19  1  0  0  0  0
  7 20  1  0  0  0  0
  7 21  1  0  0  0  0
  7 22  1  0  0  0  0
M  END
> <id>
2663

> <casrn>
108-18-9

> <smiles (First)>


> <Molecular weight>
101.19000244140625

> <name>
bis(propan-2-yl)amine

> <Outcome>
1

> <Molecule (RDKit Mol) (InChI Code)>
InChI=1S/C6H15N/c1-5(2)7-6(3)4/h5-7H,1-4H3

> <reference>
ECHA

> <molecule_form>
V

$$$$

  Mrv1812 01171911372D          

 22 21  0  0  0  0            999 V2000
    1.0461    1.4273    0.0000 C   0  0  0  0  0  0  0  0  0  0  0  0
    1.7605    1.8398    0.0000 C   0  0  0  0  0  0  0  0  0  0  0  0
    2.4750    1.4273    0.0000 C   0  0  0  0  0  0  0  0  0  0  0  0
    3.1895    1.8398    0.0000 C   0  0  0  0  0  0  0  0  0  0  0  0
    3.9039    1.4273    0.0000 C   0  0  0  0  0  0  0  0  0  0  0  0
    4.6184    1.8398    0.0000 C   0  0  0  0  0  0  0  0  0  0  0  0
    5.3329    1.4273    0.0000 C   0  0  0  0  0  0  0  0  0  0  0  0
    6.0474    1.8398    0.0000 O   0  0  0  0  0  0  0  0  0  0  0  0
    5.3329    0.6023    0.0000 Cl  0  0  0  0  0  0  0  0  0  0  0  0
    0.6336    2.1418    0.0000 H   0  0  0  0  0  0  0  0  0  0  0  0
    0.3316    1.0148    0.0000 H   0  0  0  0  0  0  0  0  0  0  0  0
    1.4586    0.7128    0.0000 H   0  0  0  0  0  0  0  0  0  0  0  0
    2.1308    2.5770    0.0000 H   0  0  0  0  0  0  0  0  0  0  0  0
    1.3903    2.5770    0.0000 H   0  0  0  0  0  0  0  0  0  0  0  0
    2.1047    0.6901    0.0000 H   0  0  0  0  0  0  0  0  0  0  0  0
    2.8453    0.6901    0.0000 H   0  0  0  0  0  0  0  0  0  0  0  0
    3.5597    2.5770    0.0000 H   0  0  0  0  0  0  0  0  0  0  0  0
    2.8192    2.5770    0.0000 H   0  0  0  0  0  0  0  0  0  0  0  0
    3.5337    0.6901    0.0000 H   0  0  0  0  0  0  0  0  0  0  0  0
    4.2742    0.6901    0.0000 H   0  0  0  0  0  0  0  0  0  0  0  0
    4.9887    2.5770    0.0000 H   0  0  0  0  0  0  0  0  0  0  0  0
    4.2482    2.5770    0.0000 H   0  0  0  0  0  0  0  0  0  0  0  0
  1  2  1  0  0  0  0
  2  3  1  0  0  0  0
  3  4  1  0  0  0  0
  4  5  1  0  0  0  0
  5  6  1  0  0  0  0
  6  7  1  0  0  0  0
  7  8  2  0  0  0  0
  7  9  1  0  0  0  0
  1 10  1  0  0  0  0
  1 11  1  0  0  0  0
  1 12  1  0  0  0  0
  2 13  1  0  0  0  0
  2 14  1  0  0  0  0
  3 15  1  0  0  0  0
  3 16  1  0  0  0  0
  4 17  1  0  0  0  0
  4 18  1  0  0  0  0
  5 19  1  0  0  0  0
  5 20  1  0  0  0  0
  6 21  1  0  0  0  0
  6 22  1  0  0  0  0
M  END
> <id>
3236

> <casrn>
2528-61-2

> <smiles (First)>


> <Molecular weight>
148.63052368164062

> <name>
heptanoyl chloride

> <Outcome>
1

> <Molecule (RDKit Mol) (InChI Code)>
InChI=1S/C7H13ClO/c1-2-3-4-5-6-7(8)9/h2-6H2,1H3

> <reference>
ECHA

> <molecule_form>
V

$$$$

  Mrv1812 01171911372D          

 12 12  0  0  0  0            999 V2000
    0.7145    1.2375    0.0000 C   0  0  0  0  0  0  0  0  0  0  0  0
    1.4289    0.8250    0.0000 C   0  0  0  0  0  0  0  0  0  0  0  0
    1.4289   -0.0000    0.0000 C   0  0  0  0  0  0  0  0  0  0  0  0
    0.7145   -0.4125    0.0000 C   0  0  0  0  0  0  0  0  0  0  0  0
    0.0000    0.0000    0.0000 C   0  0  0  0  0  0  0  0  0  0  0  0
    0.0000    0.8250    0.0000 C   0  0  0  0  0  0  0  0  0  0  0  0
    0.7145    2.0625    0.0000 H   0  0  0  0  0  0  0  0  0  0  0  0
    2.1434    1.2375    0.0000 H   0  0  0  0  0  0  0  0  0  0  0  0
    2.1434   -0.4125    0.0000 H   0  0  0  0  0  0  0  0  0  0  0  0
    0.7145   -1.2375    0.0000 H   0  0  0  0  0  0  0  0  0  0  0  0
   -0.7145   -0.4125    0.0000 H   0  0  0  0  0  0  0  0  0  0  0  0
   -0.7145    1.2375    0.0000 H   0  0  0  0  0  0  0  0  0  0  0  0
  1  2  4  0  0  0  0
  2  3  4  0  0  0  0
  3  4  4  0  0  0  0
  4  5  4  0  0  0  0
  5  6  4  0  0  0  0
  1  6  4  0  0  0  0
  1  7  1  0  0  0  0
  2  8  1  0  0  0  0
  3  9  1  0  0  0  0
  4 10  1  0  0  0  0
  5 11  1  0  0  0  0
  6 12  1  0  0  0  0
M  END
> <id>
2614

> <casrn>
71-43-2

> <smiles (First)>


> <Molecular weight>
78.1118392944336

> <name>
benzene

> <Outcome>
0

> <Molecule (RDKit Mol) (InChI Code)>
InChI=1S/C6H6/c1-2-4-6-5-3-1/h1-6H

> <reference>
ECHA

> <molecule_form>
V

$$$$

  Mrv1812 01171911372D          

 17 17  0  0  0  0            999 V2000
    1.4307    2.4760    0.0000 O   0  0  0  0  0  0  0  0  0  0  0  0
    0.7163    2.0635    0.0000 C   0  0  0  0  0  0  0  0  0  0  0  0
    0.0018    2.4760    0.0000 C   0  0  0  0  0  0  0  0  0  0  0  0
    0.0018    3.3010    0.0000 Cl  0  0  0  0  0  0  0  0  0  0  0  0
    0.7163    1.2385    0.0000 C   0  0  0  0  0  0  0  0  0  0  0  0
    1.4307    0.8260    0.0000 C   0  0  0  0  0  0  0  0  0  0  0  0
    1.4307    0.0010    0.0000 C   0  0  0  0  0  0  0  0  0  0  0  0
    0.7163   -0.4115    0.0000 C   0  0  0  0  0  0  0  0  0  0  0  0
    0.7163   -1.2365    0.0000 F   0  0  0  0  0  0  0  0  0  0  0  0
    0.0018    0.0010    0.0000 C   0  0  0  0  0  0  0  0  0  0  0  0
    0.0018    0.8260    0.0000 C   0  0  0  0  0  0  0  0  0  0  0  0
   -0.8218    2.4280    0.0000 H   0  0  0  0  0  0  0  0  0  0  0  0
   -0.4516    1.7867    0.0000 H   0  0  0  0  0  0  0  0  0  0  0  0
    2.1452    1.2385    0.0000 H   0  0  0  0  0  0  0  0  0  0  0  0
    2.1452   -0.4115    0.0000 H   0  0  0  0  0  0  0  0  0  0  0  0
   -0.7127   -0.4115    0.0000 H   0  0  0  0  0  0  0  0  0  0  0  0
   -0.7127    1.2385    0.0000 H   0  0  0  0  0  0  0  0  0  0  0  0
  1  2  2  0  0  0  0
  2  3  1  0  0  0  0
  3  4  1  0  0  0  0
  2  5  1  0  0  0  0
  5  6  4  0  0  0  0
  6  7  4  0  0  0  0
  7  8  4  0  0  0  0
  8  9  1  0  0  0  0
  8 10  4  0  0  0  0
 10 11  4  0  0  0  0
  5 11  4  0  0  0  0
  3 12  1  0  0  0  0
  3 13  1  0  0  0  0
  6 14  1  0  0  0  0
  7 15  1  0  0  0  0
 10 16  1  0  0  0  0
 11 17  1  0  0  0  0
M  END
> <id>
1428

> <casrn>
456-04-2

> <smiles (First)>


> <Molecular weight>
172.58404541015625

> <name>
2-chloro-1-(4-fluorophenyl)ethanone

> <Outcome>
1

> <Molecule (RDKit Mol) (InChI Code)>
InChI=1S/C8H6ClFO/c9-5-8(11)6-1-3-7(10)4-2-6/h1-4H,5H2

> <reference>
ECHA

> <molecule_form>
V

$$$$

  Mrv1812 01171911372D          

 17 17  0  0  0  0            999 V2000
    0.7145    2.0625    0.0000 C   0  0  0  0  0  0  0  0  0  0  0  0
    0.7145    1.2375    0.0000 C   0  0  0  0  0  0  0  0  0  0  0  0
    1.4289    0.8250    0.0000 C   0  0  0  0  0  0  0  0  0  0  0  0
    1.4289   -0.0000    0.0000 C   0  0  0  0  0  0  0  0  0  0  0  0
    0.7145   -0.4125    0.0000 C   0  0  0  0  0  0  0  0  0  0  0  0
    0.7145   -1.2375    0.0000 N   0  0  0  0  0  0  0  0  0  0  0  0
    1.4289   -1.6500    0.0000 C   0  0  0  0  0  0  0  0  0  0  0  0
    2.1434   -2.0625    0.0000 O   0  0  0  0  0  0  0  0  0  0  0  0
   -0.0000   -0.0000    0.0000 C   0  0  0  0  0  0  0  0  0  0  0  0
   -0.0000    0.8250    0.0000 C   0  0  0  0  0  0  0  0  0  0  0  0
   -0.7145    1.2375    0.0000 Cl  0  0  0  0  0  0  0  0  0  0  0  0
    1.5395    2.0625    0.0000 H   0  0  0  0  0  0  0  0  0  0  0  0
    0.7145    2.8875    0.0000 H   0  0  0  0  0  0  0  0  0  0  0  0
   -0.1105    2.0625    0.0000 H   0  0  0  0  0  0  0  0  0  0  0  0
    2.1434    1.2375    0.0000 H   0  0  0  0  0  0  0  0  0  0  0  0
    2.1434   -0.4125    0.0000 H   0  0  0  0  0  0  0  0  0  0  0  0
   -0.7145   -0.4125    0.0000 H   0  0  0  0  0  0  0  0  0  0  0  0
  1  2  1  0  0  0  0
  2  3  4  0  0  0  0
  3  4  4  0  0  0  0
  4  5  4  0  0  0  0
  5  6  1  0  0  0  0
  6  7  2  0  0  0  0
  7  8  2  0  0  0  0
  5  9  4  0  0  0  0
  9 10  4  0  0  0  0
  2 10  4  0  0  0  0
 10 11  1  0  0  0  0
  1 12  1  0  0  0  0
  1 13  1  0  0  0  0
  1 14  1  0  0  0  0
  3 15  1  0  0  0  0
  4 16  1  0  0  0  0
  9 17  1  0  0  0  0
M  END
> <id>
1430

> <casrn>
28479-22-3

> <smiles (First)>


> <Molecular weight>
167.59234619140625

> <name>
2-chloro-4-isocyanato-1-methylbenzene

> <Outcome>
1

> <Molecule (RDKit Mol) (InChI Code)>
InChI=1S/C8H6ClNO/c1-6-2-3-7(10-5-11)4-8(6)9/h2-4H,1H3

> <reference>
ECHA

> <molecule_form>
A

$$$$

  Mrv1812 01171911372D          

 27 26  0  0  0  0            999 V2000
   -0.6912   -2.4052    0.0000 C   0  0  0  0  0  0  0  0  0  0  0  0
    0.0233   -1.9927    0.0000 C   0  0  0  0  0  0  0  0  0  0  0  0
    0.7378   -2.4052    0.0000 C   0  0  0  0  0  0  0  0  0  0  0  0
    0.0233   -1.1677    0.0000 C   0  0  0  0  0  0  0  0  0  0  0  0
    0.7378   -0.7552    0.0000 O   0  0  0  0  0  0  0  0  0  0  0  0
    0.7378    0.0698    0.0000 C   0  0  0  0  0  0  0  0  0  0  0  0
    0.7378    0.8948    0.0000 C   0  0  0  0  0  0  0  0  0  0  0  0
    1.5628    0.0698    0.0000 C   0  0  0  0  0  0  0  0  0  0  0  0
   -0.0872    0.0698    0.0000 C   0  0  0  0  0  0  0  0  0  0  0  0
   -1.1037   -1.6908    0.0000 H   0  0  0  0  0  0  0  0  0  0  0  0
   -1.4057   -2.8177    0.0000 H   0  0  0  0  0  0  0  0  0  0  0  0
   -0.2787   -3.1197    0.0000 H   0  0  0  0  0  0  0  0  0  0  0  0
    0.0233   -2.8177    0.0000 H   0  0  0  0  0  0  0  0  0  0  0  0
    0.9513   -3.2021    0.0000 H   0  0  0  0  0  0  0  0  0  0  0  0
    1.5628   -2.4052    0.0000 H   0  0  0  0  0  0  0  0  0  0  0  0
    0.9513   -1.6083    0.0000 H   0  0  0  0  0  0  0  0  0  0  0  0
   -0.4301   -0.4784    0.0000 H   0  0  0  0  0  0  0  0  0  0  0  0
   -0.8003   -1.1198    0.0000 H   0  0  0  0  0  0  0  0  0  0  0  0
    1.5628    0.8948    0.0000 H   0  0  0  0  0  0  0  0  0  0  0  0
    0.7378    1.7198    0.0000 H   0  0  0  0  0  0  0  0  0  0  0  0
   -0.0872    0.8948    0.0000 H   0  0  0  0  0  0  0  0  0  0  0  0
    1.2470   -0.6924    0.0000 H   0  0  0  0  0  0  0  0  0  0  0  0
    2.1461   -0.5136    0.0000 H   0  0  0  0  0  0  0  0  0  0  0  0
    2.3250    0.3855    0.0000 H   0  0  0  0  0  0  0  0  0  0  0  0
   -0.7130    0.6075    0.0000 H   0  0  0  0  0  0  0  0  0  0  0  0
   -0.9029   -0.0544    0.0000 H   0  0  0  0  0  0  0  0  0  0  0  0
    0.3126   -0.6519    0.0000 H   0  0  0  0  0  0  0  0  0  0  0  0
  1  2  1  0  0  0  0
  2  3  1  0  0  0  0
  2  4  1  0  0  0  0
  4  5  1  0  0  0  0
  5  6  1  0  0  0  0
  6  7  1  0  0  0  0
  6  8  1  0  0  0  0
  6  9  1  0  0  0  0
  1 10  1  0  0  0  0
  1 11  1  0  0  0  0
  1 12  1  0  0  0  0
  2 13  1  0  0  0  0
  3 14  1  0  0  0  0
  3 15  1  0  0  0  0
  3 16  1  0  0  0  0
  4 17  1  0  0  0  0
  4 18  1  0  0  0  0
  7 19  1  0  0  0  0
  7 20  1  0  0  0  0
  7 21  1  0  0  0  0
  8 22  1  0  0  0  0
  8 23  1  0  0  0  0
  8 24  1  0  0  0  0
  9 25  1  0  0  0  0
  9 26  1  0  0  0  0
  9 27  1  0  0  0  0
M  END
> <id>
3922

> <casrn>
33021-02-2

> <smiles (First)>


> <Molecular weight>
130.22792053222656

> <name>
tert-butyl isobutyl ether

> <Outcome>
0

> <Molecule (RDKit Mol) (InChI Code)>
InChI=1S/C8H18O/c1-7(2)6-9-8(3,4)5/h7H,6H2,1-5H3

> <reference>
ECHA

> <molecule_form>
V

$$$$

  Mrv1812 01171911372D          

 37 39  0  0  0  0            999 V2000
   -1.2754   -0.0364    0.0000 O   0  0  0  0  0  0  0  0  0  0  0  0
   -0.5609   -0.4489    0.0000 C   0  0  0  0  0  0  0  0  0  0  0  0
   -0.2254    0.3048    0.0000 O   0  0  0  0  0  0  0  0  0  0  0  0
   -0.5609   -1.2739    0.0000 C   0  0  0  0  0  0  0  0  0  0  0  0
   -1.2754   -1.6864    0.0000 C   0  0  0  0  0  0  0  0  0  0  0  0
   -1.2754   -2.5114    0.0000 C   0  0  0  0  0  0  0  0  0  0  0  0
   -0.5609   -2.9239    0.0000 C   0  0  0  0  0  0  0  0  0  0  0  0
    0.1535   -2.5114    0.0000 C   0  0  0  0  0  0  0  0  0  0  0  0
    0.1535   -1.6864    0.0000 C   0  0  0  0  0  0  0  0  0  0  0  0
    0.8680   -1.2739    0.0000 P   0  0  0  0  0  0  0  0  0  0  0  0
    1.5825   -1.6864    0.0000 C   0  0  0  0  0  0  0  0  0  0  0  0
    2.2969   -1.2739    0.0000 C   0  0  0  0  0  0  0  0  0  0  0  0
    3.0114   -1.6864    0.0000 C   0  0  0  0  0  0  0  0  0  0  0  0
    3.0114   -2.5114    0.0000 C   0  0  0  0  0  0  0  0  0  0  0  0
    2.2969   -2.9239    0.0000 C   0  0  0  0  0  0  0  0  0  0  0  0
    1.5825   -2.5114    0.0000 C   0  0  0  0  0  0  0  0  0  0  0  0
    0.8680   -0.4489    0.0000 C   0  0  0  0  0  0  0  0  0  0  0  0
    0.1535   -0.0364    0.0000 C   0  0  0  0  0  0  0  0  0  0  0  0
    0.1535    0.7886    0.0000 C   0  0  0  0  0  0  0  0  0  0  0  0
    0.8680    1.2011    0.0000 C   0  0  0  0  0  0  0  0  0  0  0  0
    1.5825    0.7886    0.0000 C   0  0  0  0  0  0  0  0  0  0  0  0
    1.5825   -0.0364    0.0000 C   0  0  0  0  0  0  0  0  0  0  0  0
   -0.9323    0.7301    0.0000 H   0  0  0  0  0  0  0  0  0  0  0  0
   -1.9899   -1.2739    0.0000 H   0  0  0  0  0  0  0  0  0  0  0  0
   -1.9899   -2.9239    0.0000 H   0  0  0  0  0  0  0  0  0  0  0  0
   -0.5609   -3.7489    0.0000 H   0  0  0  0  0  0  0  0  0  0  0  0
    0.8680   -2.9239    0.0000 H   0  0  0  0  0  0  0  0  0  0  0  0
    2.2969   -0.4489    0.0000 H   0  0  0  0  0  0  0  0  0  0  0  0
    3.7259   -1.2739    0.0000 H   0  0  0  0  0  0  0  0  0  0  0  0
    3.7259   -2.9239    0.0000 H   0  0  0  0  0  0  0  0  0  0  0  0
    2.2969   -3.7489    0.0000 H   0  0  0  0  0  0  0  0  0  0  0  0
    0.8680   -2.0989    0.0000 H   0  0  0  0  0  0  0  0  0  0  0  0
    0.1535   -0.8614    0.0000 H   0  0  0  0  0  0  0  0  0  0  0  0
   -0.3874    1.4116    0.0000 H   0  0  0  0  0  0  0  0  0  0  0  0
    0.8680    2.0261    0.0000 H   0  0  0  0  0  0  0  0  0  0  0  0
    2.2969    1.2011    0.0000 H   0  0  0  0  0  0  0  0  0  0  0  0
    1.5825   -0.8614    0.0000 H   0  0  0  0  0  0  0  0  0  0  0  0
  1  2  2  0  0  0  0
  2  3  1  0  0  0  0
  2  4  1  0  0  0  0
  4  5  4  0  0  0  0
  5  6  4  0  0  0  0
  6  7  4  0  0  0  0
  7  8  4  0  0  0  0
  8  9  4  0  0  0  0
  4  9  4  0  0  0  0
  9 10  1  0  0  0  0
 10 11  1  0  0  0  0
 11 12  4  0  0  0  0
 12 13  4  0  0  0  0
 13 14  4  0  0  0  0
 14 15  4  0  0  0  0
 15 16  4  0  0  0  0
 11 16  4  0  0  0  0
 10 17  1  0  0  0  0
 17 18  4  0  0  0  0
 18 19  4  0  0  0  0
 19 20  4  0  0  0  0
 20 21  4  0  0  0  0
 21 22  4  0  0  0  0
 17 22  4  0  0  0  0
  3 23  1  0  0  0  0
  5 24  1  0  0  0  0
  6 25  1  0  0  0  0
  7 26  1  0  0  0  0
  8 27  1  0  0  0  0
 12 28  1  0  0  0  0
 13 29  1  0  0  0  0
 14 30  1  0  0  0  0
 15 31  1  0  0  0  0
 16 32  1  0  0  0  0
 18 33  1  0  0  0  0
 19 34  1  0  0  0  0
 20 35  1  0  0  0  0
 21 36  1  0  0  0  0
 22 37  1  0  0  0  0
M  END
> <id>
1345

> <casrn>
17261-28-8

> <smiles (First)>


> <Molecular weight>
306.2949523925781

> <name>
2-(diphenylphosphino)benzoic acid

> <Outcome>
1

> <Molecule (RDKit Mol) (InChI Code)>
InChI=1S/C19H15O2P/c20-19(21)17-13-7-8-14-18(17)22(15-9-3-1-4-10-15)16-11-5-2-6-12-16/h1-14H,(H,20,21)

> <reference>
ECHA

> <molecule_form>
A

$$$$

  Mrv1812 01171911372D          

 23 23  0  0  0  0            999 V2000
    0.1320    3.3848    0.0000 C   0  0  0  0  0  0  0  0  0  0  0  0
    0.1320    2.5598    0.0000 C   0  0  0  0  0  0  0  0  0  0  0  0
    0.8465    2.1473    0.0000 O   0  0  0  0  0  0  0  0  0  0  0  0
    0.8465    1.3223    0.0000 C   0  0  0  0  0  0  0  0  0  0  0  0
    1.5610    0.9098    0.0000 C   0  0  0  0  0  0  0  0  0  0  0  0
    1.5610    0.0848    0.0000 C   0  0  0  0  0  0  0  0  0  0  0  0
    0.8465   -0.3277    0.0000 C   0  0  0  0  0  0  0  0  0  0  0  0
    0.1320    0.0848    0.0000 C   0  0  0  0  0  0  0  0  0  0  0  0
    0.1320    0.9098    0.0000 C   0  0  0  0  0  0  0  0  0  0  0  0
    0.8465    3.7973    0.0000 H   0  0  0  0  0  0  0  0  0  0  0  0
   -0.5824    3.7973    0.0000 H   0  0  0  0  0  0  0  0  0  0  0  0
   -0.5824    2.1473    0.0000 H   0  0  0  0  0  0  0  0  0  0  0  0
    0.1320    1.7348    0.0000 H   0  0  0  0  0  0  0  0  0  0  0  0
    2.3846    0.9577    0.0000 H   0  0  0  0  0  0  0  0  0  0  0  0
    2.0143    1.5990    0.0000 H   0  0  0  0  0  0  0  0  0  0  0  0
    2.0143   -0.6045    0.0000 H   0  0  0  0  0  0  0  0  0  0  0  0
    2.3846    0.0368    0.0000 H   0  0  0  0  0  0  0  0  0  0  0  0
    0.4762   -1.0650    0.0000 H   0  0  0  0  0  0  0  0  0  0  0  0
    1.2168   -1.0650    0.0000 H   0  0  0  0  0  0  0  0  0  0  0  0
   -0.6916    0.0368    0.0000 H   0  0  0  0  0  0  0  0  0  0  0  0
   -0.3213   -0.6045    0.0000 H   0  0  0  0  0  0  0  0  0  0  0  0
   -0.6432    1.1919    0.0000 H   0  0  0  0  0  0  0  0  0  0  0  0
   -0.6432    0.6276    0.0000 H   0  0  0  0  0  0  0  0  0  0  0  0
  1  2  2  0  0  0  0
  2  3  1  0  0  0  0
  3  4  1  0  0  0  0
  4  5  1  0  0  0  0
  5  6  1  0  0  0  0
  6  7  1  0  0  0  0
  7  8  1  0  0  0  0
  8  9  1  0  0  0  0
  4  9  1  0  0  0  0
  1 10  1  0  0  0  0
  1 11  1  0  0  0  0
  2 12  1  0  0  0  0
  4 13  1  0  0  0  0
  5 14  1  0  0  0  0
  5 15  1  0  0  0  0
  6 16  1  0  0  0  0
  6 17  1  0  0  0  0
  7 18  1  0  0  0  0
  7 19  1  0  0  0  0
  8 20  1  0  0  0  0
  8 21  1  0  0  0  0
  9 22  1  0  0  0  0
  9 23  1  0  0  0  0
M  END
> <id>
223

> <casrn>
2182-55-0

> <smiles (First)>


> <Molecular weight>
126.19615936279297

> <name>
(ethenyloxy)cyclohexane

> <Outcome>
0

> <Molecule (RDKit Mol) (InChI Code)>
InChI=1S/C8H14O/c1-2-9-8-6-4-3-5-7-8/h2,8H,1,3-7H2

> <reference>
ECHA

> <molecule_form>
V

$$$$

  Mrv1812 01171911372D          

 15 14  0  0  0  0            999 V2000
    2.4750   -1.4289    0.0000 C   0  0  0  0  0  0  0  0  0  0  0  0
    2.0625   -0.7145    0.0000 C   0  0  0  0  0  0  0  0  0  0  0  0
    2.4750    0.0000    0.0000 C   0  0  0  0  0  0  0  0  0  0  0  0
    1.2375   -0.7145    0.0000 C   0  0  0  0  0  0  0  0  0  0  0  0
    0.8250   -1.4289    0.0000 O   0  0  0  0  0  0  0  0  0  0  0  0
    0.8250    0.0000    0.0000 O   0  0  0  0  0  0  0  0  0  0  0  0
    0.0000    0.0000    0.0000 C   0  0  0  0  0  0  0  0  0  0  0  0
    2.0625   -2.1434    0.0000 H   0  0  0  0  0  0  0  0  0  0  0  0
    3.3000   -1.4289    0.0000 H   0  0  0  0  0  0  0  0  0  0  0  0
    3.1895   -0.4125    0.0000 H   0  0  0  0  0  0  0  0  0  0  0  0
    2.8875    0.7145    0.0000 H   0  0  0  0  0  0  0  0  0  0  0  0
    1.7605    0.4125    0.0000 H   0  0  0  0  0  0  0  0  0  0  0  0
    0.0000    0.8250    0.0000 H   0  0  0  0  0  0  0  0  0  0  0  0
   -0.8250    0.0000    0.0000 H   0  0  0  0  0  0  0  0  0  0  0  0
    0.0000   -0.8250    0.0000 H   0  0  0  0  0  0  0  0  0  0  0  0
  1  2  2  0  0  0  0
  2  3  1  0  0  0  0
  2  4  1  0  0  0  0
  4  5  2  0  0  0  0
  4  6  1  0  0  0  0
  6  7  1  0  0  0  0
  1  8  1  0  0  0  0
  1  9  1  0  0  0  0
  3 10  1  0  0  0  0
  3 11  1  0  0  0  0
  3 12  1  0  0  0  0
  7 13  1  0  0  0  0
  7 14  1  0  0  0  0
  7 15  1  0  0  0  0
M  END
> <id>
3455

> <casrn>
80-62-6

> <smiles (First)>


> <Molecular weight>
100.1158218383789

> <name>
methyl 2-methylprop-2-enoate

> <Outcome>
0

> <Molecule (RDKit Mol) (InChI Code)>
InChI=1S/C5H8O2/c1-4(2)5(6)7-3/h1H2,2-3H3

> <reference>
ECHA

> <molecule_form>
V

$$$$

  Mrv1812 01171911372D          

 17 16  0  0  0  0            999 V2000
    1.6279   -1.8058    0.0000 C   0  0  0  0  0  0  0  0  0  0  0  0
    2.3424   -1.3933    0.0000 S   0  0  0  0  0  0  0  0  0  0  0  0
    3.0569   -1.8058    0.0000 C   0  0  0  0  0  0  0  0  0  0  0  0
    3.7713   -1.3933    0.0000 C   0  0  0  0  0  0  0  0  0  0  0  0
    4.4858   -1.8058    0.0000 C   0  0  0  0  0  0  0  0  0  0  0  0
    4.4858   -2.6308    0.0000 O   0  0  0  0  0  0  0  0  0  0  0  0
    5.2003   -1.3933    0.0000 C   0  0  0  0  0  0  0  0  0  0  0  0
    5.9148   -0.9808    0.0000 N   0  0  0  0  0  0  0  0  0  0  0  0
    1.2154   -1.0914    0.0000 H   0  0  0  0  0  0  0  0  0  0  0  0
    0.9135   -2.2183    0.0000 H   0  0  0  0  0  0  0  0  0  0  0  0
    2.0404   -2.5203    0.0000 H   0  0  0  0  0  0  0  0  0  0  0  0
    2.6866   -2.5431    0.0000 H   0  0  0  0  0  0  0  0  0  0  0  0
    3.4271   -2.5431    0.0000 H   0  0  0  0  0  0  0  0  0  0  0  0
    4.1416   -0.6561    0.0000 H   0  0  0  0  0  0  0  0  0  0  0  0
    3.4011   -0.6561    0.0000 H   0  0  0  0  0  0  0  0  0  0  0  0
    3.7713   -2.2183    0.0000 H   0  0  0  0  0  0  0  0  0  0  0  0
    4.8983   -3.3453    0.0000 H   0  0  0  0  0  0  0  0  0  0  0  0
  1  2  1  0  0  0  0
  2  3  1  0  0  0  0
  3  4  1  0  0  0  0
  4  5  1  0  0  0  0
  5  6  1  0  0  0  0
  5  7  1  0  0  0  0
  7  8  3  0  0  0  0
  1  9  1  0  0  0  0
  1 10  1  0  0  0  0
  1 11  1  0  0  0  0
  3 12  1  0  0  0  0
  3 13  1  0  0  0  0
  4 14  1  0  0  0  0
  4 15  1  0  0  0  0
  5 16  1  0  0  0  0
  6 17  1  0  0  0  0
M  END
> <id>
1480

> <casrn>
17773-41-0

> <smiles (First)>


> <Molecular weight>
131.19606018066406

> <name>
2-hydroxy-4-(methylsulfanyl)butanenitrile

> <Outcome>
1

> <Molecule (RDKit Mol) (InChI Code)>
InChI=1S/C5H9NOS/c1-8-3-2-5(7)4-6/h5,7H,2-3H2,1H3

> <reference>
ECHA

> <molecule_form>
V

$$$$

  Mrv1812 01171911372D          

 13 12  0  0  0  0            999 V2000
    1.2375    2.1434    0.0000 C   0  0  0  0  0  0  0  0  0  0  0  0
    0.8250    1.4289    0.0000 C   0  0  0  0  0  0  0  0  0  0  0  0
   -0.0000    1.4289    0.0000 O   0  0  0  0  0  0  0  0  0  0  0  0
    1.2375    0.7145    0.0000 O   0  0  0  0  0  0  0  0  0  0  0  0
    0.8250   -0.0000    0.0000 C   0  0  0  0  0  0  0  0  0  0  0  0
    1.2375   -0.7145    0.0000 C   0  0  0  0  0  0  0  0  0  0  0  0
   -0.0000   -0.0000    0.0000 O   0  0  0  0  0  0  0  0  0  0  0  0
    1.9520    1.7309    0.0000 H   0  0  0  0  0  0  0  0  0  0  0  0
    1.6500    2.8579    0.0000 H   0  0  0  0  0  0  0  0  0  0  0  0
    0.5230    2.5559    0.0000 H   0  0  0  0  0  0  0  0  0  0  0  0
    0.5230   -1.1270    0.0000 H   0  0  0  0  0  0  0  0  0  0  0  0
    1.6500   -1.4290    0.0000 H   0  0  0  0  0  0  0  0  0  0  0  0
    1.9520   -0.3020    0.0000 H   0  0  0  0  0  0  0  0  0  0  0  0
  1  2  1  0  0  0  0
  2  3  2  0  0  0  0
  2  4  1  0  0  0  0
  4  5  1  0  0  0  0
  5  6  1  0  0  0  0
  5  7  2  0  0  0  0
  1  8  1  0  0  0  0
  1  9  1  0  0  0  0
  1 10  1  0  0  0  0
  6 11  1  0  0  0  0
  6 12  1  0  0  0  0
  6 13  1  0  0  0  0
M  END
> <id>
2565

> <casrn>
108-24-7

> <smiles (First)>


> <Molecular weight>
102.08863830566406

> <name>
acetic anhydride

> <Outcome>
1

> <Molecule (RDKit Mol) (InChI Code)>
InChI=1S/C4H6O3/c1-3(5)7-4(2)6/h1-2H3

> <reference>
ECHA

> <molecule_form>
V

$$$$

  Mrv1812 01171911372D          

 25 24  0  0  0  0            999 V2000
    0.7470   -1.4496    0.0000 C   0  0  0  0  0  0  0  0  0  0  0  0
    1.1595   -2.1641    0.0000 C   0  0  0  0  0  0  0  0  0  0  0  0
    1.9845   -2.1641    0.0000 C   0  0  0  0  0  0  0  0  0  0  0  0
    2.3970   -2.8785    0.0000 C   0  0  0  0  0  0  0  0  0  0  0  0
    3.2220   -2.8785    0.0000 C   0  0  0  0  0  0  0  0  0  0  0  0
    3.6345   -3.5930    0.0000 C   0  0  0  0  0  0  0  0  0  0  0  0
    4.4595   -3.5930    0.0000 C   0  0  0  0  0  0  0  0  0  0  0  0
    3.6345   -2.1641    0.0000 C   0  0  0  0  0  0  0  0  0  0  0  0
    3.2220   -1.4496    0.0000 O   0  0  0  0  0  0  0  0  0  0  0  0
    4.4595   -2.1641    0.0000 Cl  0  0  0  0  0  0  0  0  0  0  0  0
    1.4615   -1.0371    0.0000 H   0  0  0  0  0  0  0  0  0  0  0  0
    0.3345   -0.7351    0.0000 H   0  0  0  0  0  0  0  0  0  0  0  0
    0.0326   -1.8621    0.0000 H   0  0  0  0  0  0  0  0  0  0  0  0
    0.4703   -2.6174    0.0000 H   0  0  0  0  0  0  0  0  0  0  0  0
    1.1116   -2.9877    0.0000 H   0  0  0  0  0  0  0  0  0  0  0  0
    2.6738   -1.7107    0.0000 H   0  0  0  0  0  0  0  0  0  0  0  0
    2.0325   -1.3405    0.0000 H   0  0  0  0  0  0  0  0  0  0  0  0
    1.7078   -3.3319    0.0000 H   0  0  0  0  0  0  0  0  0  0  0  0
    2.3491   -3.7021    0.0000 H   0  0  0  0  0  0  0  0  0  0  0  0
    2.8095   -3.5930    0.0000 H   0  0  0  0  0  0  0  0  0  0  0  0
    3.3524   -4.3682    0.0000 H   0  0  0  0  0  0  0  0  0  0  0  0
    3.9167   -4.3682    0.0000 H   0  0  0  0  0  0  0  0  0  0  0  0
    5.0035   -4.2133    0.0000 H   0  0  0  0  0  0  0  0  0  0  0  0
    5.1913   -3.2121    0.0000 H   0  0  0  0  0  0  0  0  0  0  0  0
    4.2634   -2.7916    0.0000 H   0  0  0  0  0  0  0  0  0  0  0  0
  1  2  1  0  0  0  0
  2  3  1  0  0  0  0
  3  4  1  0  0  0  0
  4  5  1  0  0  0  0
  5  6  1  0  0  0  0
  6  7  1  0  0  0  0
  5  8  1  0  0  0  0
  8  9  2  0  0  0  0
  8 10  1  0  0  0  0
  1 11  1  0  0  0  0
  1 12  1  0  0  0  0
  1 13  1  0  0  0  0
  2 14  1  0  0  0  0
  2 15  1  0  0  0  0
  3 16  1  0  0  0  0
  3 17  1  0  0  0  0
  4 18  1  0  0  0  0
  4 19  1  0  0  0  0
  5 20  1  0  0  0  0
  6 21  1  0  0  0  0
  6 22  1  0  0  0  0
  7 23  1  0  0  0  0
  7 24  1  0  0  0  0
  7 25  1  0  0  0  0
M  END
> <id>
1467

> <casrn>
760-67-8

> <smiles (First)>


> <Molecular weight>
162.6571044921875

> <name>
2-ethylhexanoyl chloride

> <Outcome>
1

> <Molecule (RDKit Mol) (InChI Code)>
InChI=1S/C8H15ClO/c1-3-5-6-7(4-2)8(9)10/h7H,3-6H2,1-2H3

> <reference>
ECHA

> <molecule_form>
V

$$$$

  Mrv1812 01171911372D          

 13 12  0  0  0  0            999 V2000
    2.0625   -0.7145    0.0000 C   0  0  0  0  0  0  0  0  0  0  0  0
    1.2375   -0.7145    0.0000 C   0  0  0  0  0  0  0  0  0  0  0  0
    0.8250   -0.0000    0.0000 C   0  0  0  0  0  0  0  0  0  0  0  0
    0.0000   -0.0000    0.0000 N   0  0  0  0  0  0  0  0  0  0  0  0
    2.0625   -1.5395    0.0000 H   0  0  0  0  0  0  0  0  0  0  0  0
    2.8875   -0.7145    0.0000 H   0  0  0  0  0  0  0  0  0  0  0  0
    2.0625    0.1105    0.0000 H   0  0  0  0  0  0  0  0  0  0  0  0
    0.5482   -1.1678    0.0000 H   0  0  0  0  0  0  0  0  0  0  0  0
    1.1895   -1.5381    0.0000 H   0  0  0  0  0  0  0  0  0  0  0  0
    1.5143    0.4533    0.0000 H   0  0  0  0  0  0  0  0  0  0  0  0
    0.8730    0.8236    0.0000 H   0  0  0  0  0  0  0  0  0  0  0  0
   -0.4125    0.7145    0.0000 H   0  0  0  0  0  0  0  0  0  0  0  0
   -0.4125   -0.7145    0.0000 H   0  0  0  0  0  0  0  0  0  0  0  0
  1  2  1  0  0  0  0
  2  3  1  0  0  0  0
  3  4  1  0  0  0  0
  1  5  1  0  0  0  0
  1  6  1  0  0  0  0
  1  7  1  0  0  0  0
  2  8  1  0  0  0  0
  2  9  1  0  0  0  0
  3 10  1  0  0  0  0
  3 11  1  0  0  0  0
  4 12  1  0  0  0  0
  4 13  1  0  0  0  0
M  END
> <id>
3785

> <casrn>
107-10-8

> <smiles (First)>


> <Molecular weight>
59.110260009765625

> <name>
propan-1-amine

> <Outcome>
1

> <Molecule (RDKit Mol) (InChI Code)>
InChI=1S/C3H9N/c1-2-3-4/h2-4H2,1H3

> <reference>
ECHA

> <molecule_form>
V

$$$$

  Mrv1812 01171911372D          

 17 17  0  0  0  0            999 V2000
    1.9711   -0.0822    0.0000 C   0  0  0  0  0  0  0  0  0  0  0  0
    1.1507   -0.1684    0.0000 C   0  0  0  0  0  0  0  0  0  0  0  0
    0.6657    0.4990    0.0000 N   0  0  0  0  0  0  0  0  0  0  0  0
   -0.1593    0.4990    0.0000 C   0  0  0  0  0  0  0  0  0  0  0  0
   -0.4142    1.2836    0.0000 C   0  0  0  0  0  0  0  0  0  0  0  0
    0.2532    1.7686    0.0000 C   0  0  0  0  0  0  0  0  0  0  0  0
    0.9207    1.2836    0.0000 C   0  0  0  0  0  0  0  0  0  0  0  0
    1.7053    1.5386    0.0000 O   0  0  0  0  0  0  0  0  0  0  0  0
    2.4561   -0.7496    0.0000 H   0  0  0  0  0  0  0  0  0  0  0  0
    2.3067    0.6715    0.0000 H   0  0  0  0  0  0  0  0  0  0  0  0
    0.8151   -0.9221    0.0000 H   0  0  0  0  0  0  0  0  0  0  0  0
   -0.9008    0.1374    0.0000 H   0  0  0  0  0  0  0  0  0  0  0  0
   -0.2741   -0.3180    0.0000 H   0  0  0  0  0  0  0  0  0  0  0  0
   -0.9873    1.8771    0.0000 H   0  0  0  0  0  0  0  0  0  0  0  0
   -1.2267    1.1404    0.0000 H   0  0  0  0  0  0  0  0  0  0  0  0
    0.6406    2.4970    0.0000 H   0  0  0  0  0  0  0  0  0  0  0  0
   -0.1341    2.4970    0.0000 H   0  0  0  0  0  0  0  0  0  0  0  0
  1  2  2  0  0  0  0
  2  3  1  0  0  0  0
  3  4  1  0  0  0  0
  4  5  1  0  0  0  0
  5  6  1  0  0  0  0
  6  7  1  0  0  0  0
  3  7  1  0  0  0  0
  7  8  2  0  0  0  0
  1  9  1  0  0  0  0
  1 10  1  0  0  0  0
  2 11  1  0  0  0  0
  4 12  1  0  0  0  0
  4 13  1  0  0  0  0
  5 14  1  0  0  0  0
  5 15  1  0  0  0  0
  6 16  1  0  0  0  0
  6 17  1  0  0  0  0
M  END
> <id>
1158

> <casrn>
88-12-0

> <smiles (First)>


> <Molecular weight>
111.14176177978516

> <name>
1-ethenylpyrrolidin-2-one

> <Outcome>
1

> <Molecule (RDKit Mol) (InChI Code)>
InChI=1S/C6H9NO/c1-2-7-5-3-4-6(7)8/h2H,1,3-5H2

> <reference>
ECHA

> <molecule_form>
A

$$$$

  Mrv1812 01171911372D          

 11 11  0  0  0  0            999 V2000
    0.5666    1.1125    0.0000 C   0  0  0  0  0  0  0  0  0  0  0  0
    1.2340    0.6276    0.0000 C   0  0  0  0  0  0  0  0  0  0  0  0
    0.9791   -0.1570    0.0000 O   0  0  0  0  0  0  0  0  0  0  0  0
    0.1541   -0.1570    0.0000 C   0  0  0  0  0  0  0  0  0  0  0  0
   -0.1009    0.6276    0.0000 O   0  0  0  0  0  0  0  0  0  0  0  0
    0.9539    1.8410    0.0000 H   0  0  0  0  0  0  0  0  0  0  0  0
    0.1792    1.8410    0.0000 H   0  0  0  0  0  0  0  0  0  0  0  0
    2.0465    0.4844    0.0000 H   0  0  0  0  0  0  0  0  0  0  0  0
    1.8071    1.2211    0.0000 H   0  0  0  0  0  0  0  0  0  0  0  0
   -0.5875   -0.5187    0.0000 H   0  0  0  0  0  0  0  0  0  0  0  0
    0.0392   -0.9740    0.0000 H   0  0  0  0  0  0  0  0  0  0  0  0
  1  2  1  0  0  0  0
  2  3  1  0  0  0  0
  3  4  1  0  0  0  0
  4  5  1  0  0  0  0
  1  5  1  0  0  0  0
  1  6  1  0  0  0  0
  1  7  1  0  0  0  0
  2  8  1  0  0  0  0
  2  9  1  0  0  0  0
  4 10  1  0  0  0  0
  4 11  1  0  0  0  0
M  END
> <id>
997

> <casrn>
646-06-0

> <smiles (First)>


> <Molecular weight>
74.07854461669922

> <name>
1,3-dioxolane

> <Outcome>
0

> <Molecule (RDKit Mol) (InChI Code)>
InChI=1S/C3H6O2/c1-2-5-3-4-1/h1-3H2

> <reference>
ECHA

> <molecule_form>
V

$$$$

  Mrv1812 01171911372D          

 31 30  0  0  0  0            999 V2000
   -2.6298    0.2340    0.0000 C   0  0  0  0  0  0  0  0  0  0  0  0
   -1.9153    0.6465    0.0000 C   0  0  0  0  0  0  0  0  0  0  0  0
   -1.5028   -0.0679    0.0000 C   0  0  0  0  0  0  0  0  0  0  0  0
   -2.3278    1.3610    0.0000 C   0  0  0  0  0  0  0  0  0  0  0  0
   -1.2009    1.0590    0.0000 C   0  0  0  0  0  0  0  0  0  0  0  0
   -0.4864    0.6465    0.0000 C   0  0  0  0  0  0  0  0  0  0  0  0
    0.2281    1.0590    0.0000 C   0  0  0  0  0  0  0  0  0  0  0  0
    0.9426    0.6465    0.0000 C   0  0  0  0  0  0  0  0  0  0  0  0
    1.6570    1.0590    0.0000 C   0  0  0  0  0  0  0  0  0  0  0  0
    2.3715    0.6465    0.0000 C   0  0  0  0  0  0  0  0  0  0  0  0
    3.0860    1.0590    0.0000 O   0  0  0  0  0  0  0  0  0  0  0  0
    2.3715   -0.1785    0.0000 Cl  0  0  0  0  0  0  0  0  0  0  0  0
   -3.0423    0.9485    0.0000 H   0  0  0  0  0  0  0  0  0  0  0  0
   -3.3443   -0.1785    0.0000 H   0  0  0  0  0  0  0  0  0  0  0  0
   -2.2173   -0.4804    0.0000 H   0  0  0  0  0  0  0  0  0  0  0  0
   -1.3951   -0.8859    0.0000 H   0  0  0  0  0  0  0  0  0  0  0  0
   -0.7059   -0.2814    0.0000 H   0  0  0  0  0  0  0  0  0  0  0  0
   -1.0006    0.5866    0.0000 H   0  0  0  0  0  0  0  0  0  0  0  0
   -1.5099    1.4687    0.0000 H   0  0  0  0  0  0  0  0  0  0  0  0
   -2.1143    2.1579    0.0000 H   0  0  0  0  0  0  0  0  0  0  0  0
   -2.9823    1.8632    0.0000 H   0  0  0  0  0  0  0  0  0  0  0  0
   -0.4378    1.3727    0.0000 H   0  0  0  0  0  0  0  0  0  0  0  0
   -0.9830    1.8548    0.0000 H   0  0  0  0  0  0  0  0  0  0  0  0
   -0.0599   -0.0597    0.0000 H   0  0  0  0  0  0  0  0  0  0  0  0
    0.3126    0.4409    0.0000 H   0  0  0  0  0  0  0  0  0  0  0  0
    0.8425    1.6096    0.0000 H   0  0  0  0  0  0  0  0  0  0  0  0
    0.3298    1.8778    0.0000 H   0  0  0  0  0  0  0  0  0  0  0  0
    0.9817   -0.1775    0.0000 H   0  0  0  0  0  0  0  0  0  0  0  0
    1.5296    0.0669    0.0000 H   0  0  0  0  0  0  0  0  0  0  0  0
    2.0273    1.7963    0.0000 H   0  0  0  0  0  0  0  0  0  0  0  0
    1.2868    1.7963    0.0000 H   0  0  0  0  0  0  0  0  0  0  0  0
  1  2  1  0  0  0  0
  2  3  1  0  0  0  0
  2  4  1  0  0  0  0
  2  5  1  0  0  0  0
  5  6  1  0  0  0  0
  6  7  1  0  0  0  0
  7  8  1  0  0  0  0
  8  9  1  0  0  0  0
  9 10  1  0  0  0  0
 10 11  2  0  0  0  0
 10 12  1  0  0  0  0
  1 13  1  0  0  0  0
  1 14  1  0  0  0  0
  1 15  1  0  0  0  0
  3 16  1  0  0  0  0
  3 17  1  0  0  0  0
  3 18  1  0  0  0  0
  4 19  1  0  0  0  0
  4 20  1  0  0  0  0
  4 21  1  0  0  0  0
  5 22  1  0  0  0  0
  5 23  1  0  0  0  0
  6 24  1  0  0  0  0
  6 25  1  0  0  0  0
  7 26  1  0  0  0  0
  7 27  1  0  0  0  0
  8 28  1  0  0  0  0
  8 29  1  0  0  0  0
  9 30  1  0  0  0  0
  9 31  1  0  0  0  0
M  END
> <id>
1298; 1299

> <casrn>
40292-82-8

> <smiles (First)>


> <Molecular weight>
190.71026611328125

> <name>
2,5,5-trimethylheptanoyl chloride

> <Outcome>
1

> <Molecule (RDKit Mol) (InChI Code)>
InChI=1S/C10H19ClO/c1-10(2,3)8-6-4-5-7-9(11)12/h4-8H2,1-3H3

> <reference>
ECHA

> <molecule_form>
V

$$$$

  Mrv1812 01171911372D          

 16 16  0  0  0  0            999 V2000
    0.7145    2.0625    0.0000 N   0  0  0  0  0  0  0  0  0  0  0  0
    0.7145    1.2375    0.0000 C   0  0  0  0  0  0  0  0  0  0  0  0
    1.4289    0.8250    0.0000 C   0  0  0  0  0  0  0  0  0  0  0  0
    1.4289    0.0000    0.0000 C   0  0  0  0  0  0  0  0  0  0  0  0
    0.7145   -0.4125    0.0000 C   0  0  0  0  0  0  0  0  0  0  0  0
   -0.0000    0.0000    0.0000 C   0  0  0  0  0  0  0  0  0  0  0  0
   -0.7145   -0.4125    0.0000 N   0  0  0  0  0  0  0  0  0  0  0  0
   -0.0000    0.8250    0.0000 C   0  0  0  0  0  0  0  0  0  0  0  0
    1.4289    2.4750    0.0000 H   0  0  0  0  0  0  0  0  0  0  0  0
   -0.0000    2.4750    0.0000 H   0  0  0  0  0  0  0  0  0  0  0  0
    2.1434    1.2375    0.0000 H   0  0  0  0  0  0  0  0  0  0  0  0
    2.1434   -0.4125    0.0000 H   0  0  0  0  0  0  0  0  0  0  0  0
    0.7145   -1.2375    0.0000 H   0  0  0  0  0  0  0  0  0  0  0  0
   -1.4289    0.0000    0.0000 H   0  0  0  0  0  0  0  0  0  0  0  0
   -0.7145   -1.2375    0.0000 H   0  0  0  0  0  0  0  0  0  0  0  0
   -0.7145    1.2375    0.0000 H   0  0  0  0  0  0  0  0  0  0  0  0
  1  2  1  0  0  0  0
  2  3  4  0  0  0  0
  3  4  4  0  0  0  0
  4  5  4  0  0  0  0
  5  6  4  0  0  0  0
  6  7  1  0  0  0  0
  6  8  4  0  0  0  0
  2  8  4  0  0  0  0
  1  9  1  0  0  0  0
  1 10  1  0  0  0  0
  3 11  1  0  0  0  0
  4 12  1  0  0  0  0
  5 13  1  0  0  0  0
  7 14  1  0  0  0  0
  7 15  1  0  0  0  0
  8 16  1  0  0  0  0
M  END
> <id>
2617

> <casrn>
108-45-2

> <smiles (First)>


> <Molecular weight>
108.14112091064453

> <name>
benzene-1,3-diamine

> <Outcome>
1

> <Molecule (RDKit Mol) (InChI Code)>
InChI=1S/C6H8N2/c7-5-2-1-3-6(8)4-5/h1-4H,7-8H2

> <reference>
ECHA

> <molecule_form>
A

$$$$

  Mrv1812 01171911372D          

 16 15  0  0  0  0            999 V2000
   -0.1914    0.7123    0.0000 C   0  0  0  0  0  0  0  0  0  0  0  0
    0.5230    1.1248    0.0000 C   0  0  0  0  0  0  0  0  0  0  0  0
    1.2375    0.7123    0.0000 C   0  0  0  0  0  0  0  0  0  0  0  0
    1.9520    1.1248    0.0000 C   0  0  0  0  0  0  0  0  0  0  0  0
    2.6664    0.7123    0.0000 C   0  0  0  0  0  0  0  0  0  0  0  0
    3.3809    1.1248    0.0000 O   0  0  0  0  0  0  0  0  0  0  0  0
    2.6664   -0.1127    0.0000 Cl  0  0  0  0  0  0  0  0  0  0  0  0
   -0.6039    1.4268    0.0000 H   0  0  0  0  0  0  0  0  0  0  0  0
   -0.9059    0.2998    0.0000 H   0  0  0  0  0  0  0  0  0  0  0  0
    0.2211   -0.0022    0.0000 H   0  0  0  0  0  0  0  0  0  0  0  0
    0.8933    1.8620    0.0000 H   0  0  0  0  0  0  0  0  0  0  0  0
    0.1528    1.8620    0.0000 H   0  0  0  0  0  0  0  0  0  0  0  0
    0.8672   -0.0250    0.0000 H   0  0  0  0  0  0  0  0  0  0  0  0
    1.6078   -0.0250    0.0000 H   0  0  0  0  0  0  0  0  0  0  0  0
    2.3222    1.8620    0.0000 H   0  0  0  0  0  0  0  0  0  0  0  0
    1.5817    1.8620    0.0000 H   0  0  0  0  0  0  0  0  0  0  0  0
  1  2  1  0  0  0  0
  2  3  1  0  0  0  0
  3  4  1  0  0  0  0
  4  5  1  0  0  0  0
  5  6  2  0  0  0  0
  5  7  1  0  0  0  0
  1  8  1  0  0  0  0
  1  9  1  0  0  0  0
  1 10  1  0  0  0  0
  2 11  1  0  0  0  0
  2 12  1  0  0  0  0
  3 13  1  0  0  0  0
  3 14  1  0  0  0  0
  4 15  1  0  0  0  0
  4 16  1  0  0  0  0
M  END
> <id>
3716

> <casrn>
638-29-9

> <smiles (First)>


> <Molecular weight>
120.57736206054688

> <name>
pentanoyl chloride

> <Outcome>
1

> <Molecule (RDKit Mol) (InChI Code)>
InChI=1S/C5H9ClO/c1-2-3-4-5(6)7/h2-4H2,1H3

> <reference>
ECHA

> <molecule_form>
V

$$$$

  Mrv1812 01171911372D          

 16 15  0  0  0  0            999 V2000
    0.8446    1.4911    0.0000 C   0  0  0  0  0  0  0  0  0  0  0  0
    1.2571    0.7766    0.0000 N   0  0  0  0  0  0  0  0  0  0  0  0
    0.8446    0.0621    0.0000 C   0  0  0  0  0  0  0  0  0  0  0  0
    1.2571   -0.6523    0.0000 C   0  0  0  0  0  0  0  0  0  0  0  0
    0.0196    0.0621    0.0000 C   0  0  0  0  0  0  0  0  0  0  0  0
    1.5591    1.9036    0.0000 H   0  0  0  0  0  0  0  0  0  0  0  0
    0.4321    2.2056    0.0000 H   0  0  0  0  0  0  0  0  0  0  0  0
    0.1302    1.0786    0.0000 H   0  0  0  0  0  0  0  0  0  0  0  0
    2.0821    0.7766    0.0000 H   0  0  0  0  0  0  0  0  0  0  0  0
    1.6696    0.0621    0.0000 H   0  0  0  0  0  0  0  0  0  0  0  0
    0.4603   -0.8659    0.0000 H   0  0  0  0  0  0  0  0  0  0  0  0
    1.2571   -1.4773    0.0000 H   0  0  0  0  0  0  0  0  0  0  0  0
    2.0540   -0.8659    0.0000 H   0  0  0  0  0  0  0  0  0  0  0  0
    0.0196    0.8871    0.0000 H   0  0  0  0  0  0  0  0  0  0  0  0
   -0.8054    0.0621    0.0000 H   0  0  0  0  0  0  0  0  0  0  0  0
    0.0196   -0.7629    0.0000 H   0  0  0  0  0  0  0  0  0  0  0  0
  1  2  1  0  0  0  0
  2  3  1  0  0  0  0
  3  4  1  0  0  0  0
  3  5  1  0  0  0  0
  1  6  1  0  0  0  0
  1  7  1  0  0  0  0
  1  8  1  0  0  0  0
  2  9  1  0  0  0  0
  3 10  1  0  0  0  0
  4 11  1  0  0  0  0
  4 12  1  0  0  0  0
  4 13  1  0  0  0  0
  5 14  1  0  0  0  0
  5 15  1  0  0  0  0
  5 16  1  0  0  0  0
M  END
> <id>
2418

> <casrn>
4747-21-1

> <smiles (First)>


> <Molecular weight>
73.1368408203125

> <name>
N-methylpropan-2-amine

> <Outcome>
1

> <Molecule (RDKit Mol) (InChI Code)>
InChI=1S/C4H11N/c1-4(2)5-3/h4-5H,1-3H3

> <reference>
ECHA

> <molecule_form>
V

$$$$

  Mrv1812 01171911372D          

 16 15  0  0  0  0            999 V2000
    1.2375    2.1434    0.0000 C   0  0  0  0  0  0  0  0  0  0  0  0
    0.8250    1.4289    0.0000 C   0  0  0  0  0  0  0  0  0  0  0  0
    1.2375    0.7145    0.0000 C   0  0  0  0  0  0  0  0  0  0  0  0
    0.8250   -0.0000    0.0000 C   0  0  0  0  0  0  0  0  0  0  0  0
    1.2375   -0.7145    0.0000 C   0  0  0  0  0  0  0  0  0  0  0  0
   -0.0000   -0.0000    0.0000 O   0  0  0  0  0  0  0  0  0  0  0  0
    1.9520    1.7309    0.0000 H   0  0  0  0  0  0  0  0  0  0  0  0
    1.6500    2.8579    0.0000 H   0  0  0  0  0  0  0  0  0  0  0  0
    0.5230    2.5559    0.0000 H   0  0  0  0  0  0  0  0  0  0  0  0
    0.0878    1.7992    0.0000 H   0  0  0  0  0  0  0  0  0  0  0  0
    0.0878    1.0587    0.0000 H   0  0  0  0  0  0  0  0  0  0  0  0
    1.9747    0.3442    0.0000 H   0  0  0  0  0  0  0  0  0  0  0  0
    1.9747    1.0847    0.0000 H   0  0  0  0  0  0  0  0  0  0  0  0
    0.5230   -1.1270    0.0000 H   0  0  0  0  0  0  0  0  0  0  0  0
    1.6500   -1.4290    0.0000 H   0  0  0  0  0  0  0  0  0  0  0  0
    1.9520   -0.3020    0.0000 H   0  0  0  0  0  0  0  0  0  0  0  0
  1  2  1  0  0  0  0
  2  3  1  0  0  0  0
  3  4  1  0  0  0  0
  4  5  1  0  0  0  0
  4  6  2  0  0  0  0
  1  7  1  0  0  0  0
  1  8  1  0  0  0  0
  1  9  1  0  0  0  0
  2 10  1  0  0  0  0
  2 11  1  0  0  0  0
  3 12  1  0  0  0  0
  3 13  1  0  0  0  0
  5 14  1  0  0  0  0
  5 15  1  0  0  0  0
  5 16  1  0  0  0  0
M  END
> <id>
3694

> <casrn>
107-87-9

> <smiles (First)>


> <Molecular weight>
86.1323013305664

> <name>
pentan-2-one

> <Outcome>
0

> <Molecule (RDKit Mol) (InChI Code)>
InChI=1S/C5H10O/c1-3-4-5(2)6/h3-4H2,1-2H3

> <reference>
ECHA

> <molecule_form>
V

$$$$

  Mrv1812 01171911372D          

 13 13  0  0  0  0            999 V2000
   -0.1491    2.3504    0.0000 O   0  0  0  0  0  0  0  0  0  0  0  0
    0.5654    1.9379    0.0000 C   0  0  0  0  0  0  0  0  0  0  0  0
    0.5654    1.1129    0.0000 C   0  0  0  0  0  0  0  0  0  0  0  0
    1.2329    0.6280    0.0000 C   0  0  0  0  0  0  0  0  0  0  0  0
    0.9779   -0.1566    0.0000 C   0  0  0  0  0  0  0  0  0  0  0  0
    0.1529   -0.1566    0.0000 C   0  0  0  0  0  0  0  0  0  0  0  0
   -0.1020    0.6280    0.0000 O   0  0  0  0  0  0  0  0  0  0  0  0
   -0.1491    3.1754    0.0000 H   0  0  0  0  0  0  0  0  0  0  0  0
    1.3890    1.9859    0.0000 H   0  0  0  0  0  0  0  0  0  0  0  0
    1.0188    2.6272    0.0000 H   0  0  0  0  0  0  0  0  0  0  0  0
    2.0175    0.8830    0.0000 H   0  0  0  0  0  0  0  0  0  0  0  0
    1.4628   -0.8240    0.0000 H   0  0  0  0  0  0  0  0  0  0  0  0
   -0.3320   -0.8240    0.0000 H   0  0  0  0  0  0  0  0  0  0  0  0
  1  2  1  0  0  0  0
  2  3  1  0  0  0  0
  3  4  4  0  0  0  0
  4  5  4  0  0  0  0
  5  6  4  0  0  0  0
  6  7  4  0  0  0  0
  3  7  4  0  0  0  0
  1  8  1  0  0  0  0
  2  9  1  0  0  0  0
  2 10  1  0  0  0  0
  4 11  1  0  0  0  0
  5 12  1  0  0  0  0
  6 13  1  0  0  0  0
M  END
> <id>
3225; 3221; 3223; 3224; 3222

> <casrn>
98-00-0

> <smiles (First)>


> <Molecular weight>
98.09994506835938

> <name>
furan-2-ylmethanol

> <Outcome>
1

> <Molecule (RDKit Mol) (InChI Code)>
InChI=1S/C5H6O2/c6-4-5-2-1-3-7-5/h1-3,6H,4H2

> <reference>
ECHA

> <molecule_form>
V

$$$$

  Mrv1812 01171911372D          

 41 44  0  0  0  0            999 V2000
    4.1577   -1.6826    0.0000 O   0  0  0  0  0  0  0  0  0  0  0  0
    4.1577   -2.5076    0.0000 C   0  0  0  0  0  0  0  0  0  0  0  0
    4.8252   -2.9926    0.0000 C   0  0  0  0  0  0  0  0  0  0  0  0
    4.5702   -3.7772    0.0000 C   0  0  0  0  0  0  0  0  0  0  0  0
    3.7452   -3.7772    0.0000 C   0  0  0  0  0  0  0  0  0  0  0  0
    3.2603   -4.4446    0.0000 O   0  0  0  0  0  0  0  0  0  0  0  0
    3.4903   -2.9926    0.0000 N   0  0  0  0  0  0  0  0  0  0  0  0
    2.7057   -2.7376    0.0000 C   0  0  0  0  0  0  0  0  0  0  0  0
    2.0926   -3.2896    0.0000 C   0  0  0  0  0  0  0  0  0  0  0  0
    1.3080   -3.0347    0.0000 C   0  0  0  0  0  0  0  0  0  0  0  0
    1.1364   -2.2277    0.0000 C   0  0  0  0  0  0  0  0  0  0  0  0
    0.3518   -1.9728    0.0000 C   0  0  0  0  0  0  0  0  0  0  0  0
    0.1803   -1.1658    0.0000 C   0  0  0  0  0  0  0  0  0  0  0  0
   -0.6043   -0.9109    0.0000 C   0  0  0  0  0  0  0  0  0  0  0  0
   -0.7759   -0.1039    0.0000 C   0  0  0  0  0  0  0  0  0  0  0  0
   -0.1628    0.4481    0.0000 C   0  0  0  0  0  0  0  0  0  0  0  0
   -0.3343    1.2551    0.0000 N   0  0  0  0  0  0  0  0  0  0  0  0
   -1.0880    1.5907    0.0000 C   0  0  0  0  0  0  0  0  0  0  0  0
   -1.8024    1.1782    0.0000 O   0  0  0  0  0  0  0  0  0  0  0  0
   -1.0017    2.4111    0.0000 C   0  0  0  0  0  0  0  0  0  0  0  0
   -0.1948    2.5827    0.0000 C   0  0  0  0  0  0  0  0  0  0  0  0
    0.2177    1.8682    0.0000 C   0  0  0  0  0  0  0  0  0  0  0  0
    1.0382    1.7820    0.0000 O   0  0  0  0  0  0  0  0  0  0  0  0
    0.6219    0.1932    0.0000 C   0  0  0  0  0  0  0  0  0  0  0  0
    0.7934   -0.6138    0.0000 C   0  0  0  0  0  0  0  0  0  0  0  0
    1.7495   -1.6757    0.0000 C   0  0  0  0  0  0  0  0  0  0  0  0
    2.5342   -1.9306    0.0000 C   0  0  0  0  0  0  0  0  0  0  0  0
    5.6098   -2.7376    0.0000 H   0  0  0  0  0  0  0  0  0  0  0  0
    5.0552   -4.4446    0.0000 H   0  0  0  0  0  0  0  0  0  0  0  0
    2.2641   -4.0966    0.0000 H   0  0  0  0  0  0  0  0  0  0  0  0
    0.6949   -3.5867    0.0000 H   0  0  0  0  0  0  0  0  0  0  0  0
   -0.4438   -2.1910    0.0000 H   0  0  0  0  0  0  0  0  0  0  0  0
    0.0517   -2.7413    0.0000 H   0  0  0  0  0  0  0  0  0  0  0  0
   -1.2174   -1.4629    0.0000 H   0  0  0  0  0  0  0  0  0  0  0  0
   -1.5605    0.1510    0.0000 H   0  0  0  0  0  0  0  0  0  0  0  0
   -1.6148    2.9632    0.0000 H   0  0  0  0  0  0  0  0  0  0  0  0
    0.1408    3.3363    0.0000 H   0  0  0  0  0  0  0  0  0  0  0  0
    1.2350    0.7452    0.0000 H   0  0  0  0  0  0  0  0  0  0  0  0
    1.5780   -0.8687    0.0000 H   0  0  0  0  0  0  0  0  0  0  0  0
    2.3626   -1.1237    0.0000 H   0  0  0  0  0  0  0  0  0  0  0  0
    3.3411   -1.7591    0.0000 H   0  0  0  0  0  0  0  0  0  0  0  0
  1  2  2  0  0  0  0
  2  3  1  0  0  0  0
  3  4  2  0  0  0  0
  4  5  1  0  0  0  0
  5  6  2  0  0  0  0
  5  7  1  0  0  0  0
  2  7  1  0  0  0  0
  7  8  1  0  0  0  0
  8  9  4  0  0  0  0
  9 10  4  0  0  0  0
 10 11  4  0  0  0  0
 11 12  1  0  0  0  0
 12 13  1  0  0  0  0
 13 14  4  0  0  0  0
 14 15  4  0  0  0  0
 15 16  4  0  0  0  0
 16 17  1  0  0  0  0
 17 18  1  0  0  0  0
 18 19  2  0  0  0  0
 18 20  1  0  0  0  0
 20 21  2  0  0  0  0
 21 22  1  0  0  0  0
 17 22  1  0  0  0  0
 22 23  2  0  0  0  0
 16 24  4  0  0  0  0
 24 25  4  0  0  0  0
 13 25  4  0  0  0  0
 11 26  4  0  0  0  0
 26 27  4  0  0  0  0
  8 27  4  0  0  0  0
  3 28  1  0  0  0  0
  4 29  1  0  0  0  0
  9 30  1  0  0  0  0
 10 31  1  0  0  0  0
 12 32  1  0  0  0  0
 12 33  1  0  0  0  0
 14 34  1  0  0  0  0
 15 35  1  0  0  0  0
 20 36  1  0  0  0  0
 21 37  1  0  0  0  0
 24 38  1  0  0  0  0
 25 39  1  0  0  0  0
 26 40  1  0  0  0  0
 27 41  1  0  0  0  0
M  END
> <id>
1091

> <casrn>
13676-54-5

> <smiles (First)>


> <Molecular weight>
358.34686279296875

> <name>
1-(4-{[4-(2,5-dioxo-2,5-dihydro-1H-pyrrol-1-yl)phenyl]methyl}phenyl)-2,5-dihydro-1H-pyrrole-2,5-dione

> <Outcome>
1

> <Molecule (RDKit Mol) (InChI Code)>
InChI=1S/C21H14N2O4/c24-18-9-10-19(25)22(18)16-5-1-14(2-6-16)13-15-3-7-17(8-4-15)23-20(26)11-12-21(23)27/h1-12H,13H2

> <reference>
ECHA

> <molecule_form>
A

$$$$

  Mrv1812 01171911372D          

 19 18  0  0  0  0            999 V2000
    2.6228   -1.5801    0.0000 C   0  0  0  0  0  0  0  0  0  0  0  0
    1.7978   -1.5801    0.0000 C   0  0  0  0  0  0  0  0  0  0  0  0
    1.3853   -0.8656    0.0000 C   0  0  0  0  0  0  0  0  0  0  0  0
    2.0998   -0.4531    0.0000 C   0  0  0  0  0  0  0  0  0  0  0  0
    0.6709   -1.2781    0.0000 C   0  0  0  0  0  0  0  0  0  0  0  0
    0.9728   -0.1511    0.0000 O   0  0  0  0  0  0  0  0  0  0  0  0
    0.1478   -0.1511    0.0000 O   0  0  0  0  0  0  0  0  0  0  0  0
    2.6228   -2.4051    0.0000 H   0  0  0  0  0  0  0  0  0  0  0  0
    3.4478   -1.5801    0.0000 H   0  0  0  0  0  0  0  0  0  0  0  0
    2.6228   -0.7551    0.0000 H   0  0  0  0  0  0  0  0  0  0  0  0
    1.1086   -2.0334    0.0000 H   0  0  0  0  0  0  0  0  0  0  0  0
    1.7499   -2.4037    0.0000 H   0  0  0  0  0  0  0  0  0  0  0  0
    2.8143   -0.0406    0.0000 H   0  0  0  0  0  0  0  0  0  0  0  0
    2.0998    0.3719    0.0000 H   0  0  0  0  0  0  0  0  0  0  0  0
    1.3853   -0.0406    0.0000 H   0  0  0  0  0  0  0  0  0  0  0  0
    0.5629   -0.4602    0.0000 H   0  0  0  0  0  0  0  0  0  0  0  0
   -0.1262   -1.0652    0.0000 H   0  0  0  0  0  0  0  0  0  0  0  0
    0.1694   -1.9332    0.0000 H   0  0  0  0  0  0  0  0  0  0  0  0
   -0.3447    0.5107    0.0000 H   0  0  0  0  0  0  0  0  0  0  0  0
  1  2  1  0  0  0  0
  2  3  1  0  0  0  0
  3  4  1  0  0  0  0
  3  5  1  0  0  0  0
  3  6  1  0  0  0  0
  6  7  1  0  0  0  0
  1  8  1  0  0  0  0
  1  9  1  0  0  0  0
  1 10  1  0  0  0  0
  2 11  1  0  0  0  0
  2 12  1  0  0  0  0
  4 13  1  0  0  0  0
  4 14  1  0  0  0  0
  4 15  1  0  0  0  0
  5 16  1  0  0  0  0
  5 17  1  0  0  0  0
  5 18  1  0  0  0  0
  7 19  1  0  0  0  0
M  END
> <id>
901

> <casrn>
3425-61-4

> <smiles (First)>


> <Molecular weight>
104.1475830078125

> <name>
1,1-dimethylpropyl hydroperoxide

> <Outcome>
1

> <Molecule (RDKit Mol) (InChI Code)>
InChI=1S/C5H12O2/c1-4-5(2,3)7-6/h6H,4H2,1-3H3

> <reference>
ECHA

> <molecule_form>
V

$$$$

  Mrv1812 01171911372D          

 22 21  0  0  0  0            999 V2000
    1.0461    1.4289    0.0000 C   0  0  0  0  0  0  0  0  0  0  0  0
    1.7605    1.8414    0.0000 C   0  0  0  0  0  0  0  0  0  0  0  0
    2.4750    1.4289    0.0000 C   0  0  0  0  0  0  0  0  0  0  0  0
    3.1895    1.8414    0.0000 C   0  0  0  0  0  0  0  0  0  0  0  0
    3.9039    1.4289    0.0000 C   0  0  0  0  0  0  0  0  0  0  0  0
    4.6184    1.8414    0.0000 C   0  0  0  0  0  0  0  0  0  0  0  0
    5.3329    1.4289    0.0000 C   0  0  0  0  0  0  0  0  0  0  0  0
    6.0474    1.8414    0.0000 C   0  0  0  0  0  0  0  0  0  0  0  0
    0.3316    1.8414    0.0000 H   0  0  0  0  0  0  0  0  0  0  0  0
    1.0461    0.6039    0.0000 H   0  0  0  0  0  0  0  0  0  0  0  0
    1.7605    2.6664    0.0000 H   0  0  0  0  0  0  0  0  0  0  0  0
    2.1047    0.6917    0.0000 H   0  0  0  0  0  0  0  0  0  0  0  0
    2.8453    0.6917    0.0000 H   0  0  0  0  0  0  0  0  0  0  0  0
    3.5597    2.5786    0.0000 H   0  0  0  0  0  0  0  0  0  0  0  0
    2.8192    2.5786    0.0000 H   0  0  0  0  0  0  0  0  0  0  0  0
    3.5337    0.6917    0.0000 H   0  0  0  0  0  0  0  0  0  0  0  0
    4.2742    0.6917    0.0000 H   0  0  0  0  0  0  0  0  0  0  0  0
    4.9887    2.5786    0.0000 H   0  0  0  0  0  0  0  0  0  0  0  0
    4.2482    2.5786    0.0000 H   0  0  0  0  0  0  0  0  0  0  0  0
    5.3329    0.6039    0.0000 H   0  0  0  0  0  0  0  0  0  0  0  0
    6.7618    1.4289    0.0000 H   0  0  0  0  0  0  0  0  0  0  0  0
    6.0474    2.6664    0.0000 H   0  0  0  0  0  0  0  0  0  0  0  0
  1  2  2  0  0  0  0
  2  3  1  0  0  0  0
  3  4  1  0  0  0  0
  4  5  1  0  0  0  0
  5  6  1  0  0  0  0
  6  7  1  0  0  0  0
  7  8  2  0  0  0  0
  1  9  1  0  0  0  0
  1 10  1  0  0  0  0
  2 11  1  0  0  0  0
  3 12  1  0  0  0  0
  3 13  1  0  0  0  0
  4 14  1  0  0  0  0
  4 15  1  0  0  0  0
  5 16  1  0  0  0  0
  5 17  1  0  0  0  0
  6 18  1  0  0  0  0
  6 19  1  0  0  0  0
  7 20  1  0  0  0  0
  8 21  1  0  0  0  0
  8 22  1  0  0  0  0
M  END
> <id>
3564

> <casrn>
3710-30-3

> <smiles (First)>


> <Molecular weight>
110.19676208496094

> <name>
octa-1,7-diene

> <Outcome>
0

> <Molecule (RDKit Mol) (InChI Code)>
InChI=1S/C8H14/c1-3-5-7-8-6-4-2/h3-4H,1-2,5-8H2

> <reference>
ECHA

> <molecule_form>
V

$$$$

  Mrv1812 01171911372D          

 13 13  0  0  0  0            999 V2000
    0.7145    2.0625    0.0000 O   0  0  0  0  0  0  0  0  0  0  0  0
    0.7145    1.2375    0.0000 N   0  0  0  0  0  0  0  0  0  0  0  0
    1.4289    0.8250    0.0000 C   0  0  0  0  0  0  0  0  0  0  0  0
    1.4289   -0.0000    0.0000 C   0  0  0  0  0  0  0  0  0  0  0  0
    0.7145   -0.4125    0.0000 C   0  0  0  0  0  0  0  0  0  0  0  0
   -0.0000   -0.0000    0.0000 C   0  0  0  0  0  0  0  0  0  0  0  0
   -0.0000    0.8250    0.0000 C   0  0  0  0  0  0  0  0  0  0  0  0
   -0.7145    1.2375    0.0000 S   0  0  0  0  0  0  0  0  0  0  0  0
    1.4289    2.4750    0.0000 H   0  0  0  0  0  0  0  0  0  0  0  0
    2.1434    1.2375    0.0000 H   0  0  0  0  0  0  0  0  0  0  0  0
    2.1434   -0.4125    0.0000 H   0  0  0  0  0  0  0  0  0  0  0  0
    0.7145   -1.2375    0.0000 H   0  0  0  0  0  0  0  0  0  0  0  0
   -0.7145   -0.4125    0.0000 H   0  0  0  0  0  0  0  0  0  0  0  0
  1  2  1  0  0  0  0
  2  3  1  0  0  0  0
  3  4  2  0  0  0  0
  4  5  1  0  0  0  0
  5  6  2  0  0  0  0
  6  7  1  0  0  0  0
  2  7  1  0  0  0  0
  7  8  2  0  0  0  0
  1  9  1  0  0  0  0
  3 10  1  0  0  0  0
  4 11  1  0  0  0  0
  5 12  1  0  0  0  0
  6 13  1  0  0  0  0
M  END
> <id>
3838; 4635

> <casrn>
3811-73-2

> <smiles (First)>


> <Molecular weight>
126.15635681152344

> <name>
sodium (1-oxo-1??????-pyridin-2-yl)sulfanide

> <Outcome>
1

> <Molecule (RDKit Mol) (InChI Code)>
InChI=1S/C5H5NOS/c7-6-4-2-1-3-5(6)8/h1-4,7H

> <reference>
ECHA

> <molecule_form>
A

$$$$

  Mrv1812 01171911372D          

 16 15  0  0  0  0            999 V2000
    0.8910   -0.8250    0.0000 C   0  0  0  0  0  0  0  0  0  0  0  0
    0.8910    0.0000    0.0000 C   0  0  0  0  0  0  0  0  0  0  0  0
    0.8910    0.8250    0.0000 C   0  0  0  0  0  0  0  0  0  0  0  0
    1.7160   -0.0000    0.0000 C   0  0  0  0  0  0  0  0  0  0  0  0
    0.0660    0.0000    0.0000 N   0  0  0  0  0  0  0  0  0  0  0  0
    0.0660   -0.8250    0.0000 H   0  0  0  0  0  0  0  0  0  0  0  0
    0.8910   -1.6500    0.0000 H   0  0  0  0  0  0  0  0  0  0  0  0
    1.7160   -0.8250    0.0000 H   0  0  0  0  0  0  0  0  0  0  0  0
    1.7160    0.8250    0.0000 H   0  0  0  0  0  0  0  0  0  0  0  0
    0.8910    1.6500    0.0000 H   0  0  0  0  0  0  0  0  0  0  0  0
    0.0660    0.8250    0.0000 H   0  0  0  0  0  0  0  0  0  0  0  0
    2.2994   -0.5834    0.0000 H   0  0  0  0  0  0  0  0  0  0  0  0
    2.5410   -0.0000    0.0000 H   0  0  0  0  0  0  0  0  0  0  0  0
    2.2994    0.5834    0.0000 H   0  0  0  0  0  0  0  0  0  0  0  0
   -0.7092    0.2822    0.0000 H   0  0  0  0  0  0  0  0  0  0  0  0
   -0.7092   -0.2822    0.0000 H   0  0  0  0  0  0  0  0  0  0  0  0
  1  2  1  0  0  0  0
  2  3  1  0  0  0  0
  2  4  1  0  0  0  0
  2  5  1  0  0  0  0
  1  6  1  0  0  0  0
  1  7  1  0  0  0  0
  1  8  1  0  0  0  0
  3  9  1  0  0  0  0
  3 10  1  0  0  0  0
  3 11  1  0  0  0  0
  4 12  1  0  0  0  0
  4 13  1  0  0  0  0
  4 14  1  0  0  0  0
  5 15  1  0  0  0  0
  5 16  1  0  0  0  0
M  END
> <id>
1659

> <casrn>
75-64-9

> <smiles (First)>


> <Molecular weight>
73.1368408203125

> <name>
2-methylpropan-2-amine

> <Outcome>
1

> <Molecule (RDKit Mol) (InChI Code)>
InChI=1S/C4H11N/c1-4(2,3)5/h5H2,1-3H3

> <reference>
ECHA

> <molecule_form>
V

$$$$

  Mrv1812 01171911372D          

 24 23  0  0  0  0            999 V2000
    2.0647    0.7132    0.0000 C   0  0  0  0  0  0  0  0  0  0  0  0
    1.2397    0.7132    0.0000 C   0  0  0  0  0  0  0  0  0  0  0  0
    0.8272   -0.0013    0.0000 C   0  0  0  0  0  0  0  0  0  0  0  0
    0.0022   -0.0013    0.0000 C   0  0  0  0  0  0  0  0  0  0  0  0
   -0.4103   -0.7157    0.0000 C   0  0  0  0  0  0  0  0  0  0  0  0
    0.0022   -1.4302    0.0000 C   0  0  0  0  0  0  0  0  0  0  0  0
   -0.4103   -2.1447    0.0000 C   0  0  0  0  0  0  0  0  0  0  0  0
    0.0022   -2.8592    0.0000 C   0  0  0  0  0  0  0  0  0  0  0  0
    2.0647   -0.1118    0.0000 H   0  0  0  0  0  0  0  0  0  0  0  0
    2.8897    0.7132    0.0000 H   0  0  0  0  0  0  0  0  0  0  0  0
    2.0647    1.5382    0.0000 H   0  0  0  0  0  0  0  0  0  0  0  0
    1.1917    1.5368    0.0000 H   0  0  0  0  0  0  0  0  0  0  0  0
    0.5504    1.1665    0.0000 H   0  0  0  0  0  0  0  0  0  0  0  0
    1.2397   -0.7157    0.0000 H   0  0  0  0  0  0  0  0  0  0  0  0
   -0.4103    0.7132    0.0000 H   0  0  0  0  0  0  0  0  0  0  0  0
   -1.1475   -0.3455    0.0000 H   0  0  0  0  0  0  0  0  0  0  0  0
   -1.1475   -1.0860    0.0000 H   0  0  0  0  0  0  0  0  0  0  0  0
    0.7394   -1.8005    0.0000 H   0  0  0  0  0  0  0  0  0  0  0  0
    0.7394   -1.0600    0.0000 H   0  0  0  0  0  0  0  0  0  0  0  0
   -1.1475   -1.7744    0.0000 H   0  0  0  0  0  0  0  0  0  0  0  0
   -1.1475   -2.5149    0.0000 H   0  0  0  0  0  0  0  0  0  0  0  0
   -0.7123   -3.2717    0.0000 H   0  0  0  0  0  0  0  0  0  0  0  0
    0.4147   -3.5736    0.0000 H   0  0  0  0  0  0  0  0  0  0  0  0
    0.7167   -2.4467    0.0000 H   0  0  0  0  0  0  0  0  0  0  0  0
  1  2  1  0  0  0  0
  3  2  1  4  0  0  0
  3  4  2  0  0  0  0
  4  5  1  0  0  0  0
  5  6  1  0  0  0  0
  6  7  1  0  0  0  0
  7  8  1  0  0  0  0
  1  9  1  0  0  0  0
  1 10  1  0  0  0  0
  1 11  1  0  0  0  0
  2 12  1  0  0  0  0
  2 13  1  0  0  0  0
  3 14  1  0  0  0  0
  4 15  1  0  0  0  0
  5 16  1  0  0  0  0
  5 17  1  0  0  0  0
  6 18  1  0  0  0  0
  6 19  1  0  0  0  0
  7 20  1  0  0  0  0
  7 21  1  0  0  0  0
  8 22  1  0  0  0  0
  8 23  1  0  0  0  0
  8 24  1  0  0  0  0
M  END
> <id>
3538; 3556; 3544; 3550; 3554; 3555; 3560; 3536; 3559; 3549; 3545; 3537; 3551; 3543

> <casrn>
25377-83-7

> <smiles (First)>


> <Molecular weight>
112.212646484375

> <name>
oct-1-ene

> <Outcome>
0

> <Molecule (RDKit Mol) (InChI Code)>
InChI=1S/C8H16/c1-3-5-7-8-6-4-2/h5,7H,3-4,6,8H2,1-2H3

> <reference>
ECHA

> <molecule_form>
V

$$$$

  Mrv1812 01171911372D          

 16 15  0  0  0  0            999 V2000
    2.5918   -1.5073    0.0000 C   0  0  0  0  0  0  0  0  0  0  0  0
    2.1793   -0.7928    0.0000 C   0  0  0  0  0  0  0  0  0  0  0  0
    2.5918   -0.0783    0.0000 C   0  0  0  0  0  0  0  0  0  0  0  0
    1.3543   -0.7928    0.0000 C   0  0  0  0  0  0  0  0  0  0  0  0
    0.9418   -0.0783    0.0000 C   0  0  0  0  0  0  0  0  0  0  0  0
    0.1168   -0.0783    0.0000 O   0  0  0  0  0  0  0  0  0  0  0  0
    1.8774   -1.9198    0.0000 H   0  0  0  0  0  0  0  0  0  0  0  0
    3.0043   -2.2217    0.0000 H   0  0  0  0  0  0  0  0  0  0  0  0
    3.3063   -1.0948    0.0000 H   0  0  0  0  0  0  0  0  0  0  0  0
    3.0043   -0.7928    0.0000 H   0  0  0  0  0  0  0  0  0  0  0  0
    3.3887    0.1352    0.0000 H   0  0  0  0  0  0  0  0  0  0  0  0
    2.5918    0.7467    0.0000 H   0  0  0  0  0  0  0  0  0  0  0  0
    1.7949    0.1352    0.0000 H   0  0  0  0  0  0  0  0  0  0  0  0
    0.6650   -1.2462    0.0000 H   0  0  0  0  0  0  0  0  0  0  0  0
    1.3064   -1.6164    0.0000 H   0  0  0  0  0  0  0  0  0  0  0  0
    0.8409    0.7405    0.0000 H   0  0  0  0  0  0  0  0  0  0  0  0
  1  2  1  0  0  0  0
  2  3  1  0  0  0  0
  2  4  1  0  0  0  0
  4  5  1  0  0  0  0
  5  6  2  0  0  0  0
  1  7  1  0  0  0  0
  1  8  1  0  0  0  0
  1  9  1  0  0  0  0
  2 10  1  0  0  0  0
  3 11  1  0  0  0  0
  3 12  1  0  0  0  0
  3 13  1  0  0  0  0
  4 14  1  0  0  0  0
  4 15  1  0  0  0  0
  5 16  1  0  0  0  0
M  END
> <id>
1789

> <casrn>
590-86-3

> <smiles (First)>


> <Molecular weight>
86.1323013305664

> <name>
3-methylbutanal

> <Outcome>
0

> <Molecule (RDKit Mol) (InChI Code)>
InChI=1S/C5H10O/c1-5(2)3-4-6/h4-5H,3H2,1-2H3

> <reference>
ECHA

> <molecule_form>
V

$$$$

  Mrv1812 01171911372D          

 30 29  0  0  0  0            999 V2000
   -0.3829    1.4289    0.0000 C   0  0  0  0  0  0  0  0  0  0  0  0
    0.3316    1.8414    0.0000 C   0  0  0  0  0  0  0  0  0  0  0  0
    1.0461    1.4289    0.0000 C   0  0  0  0  0  0  0  0  0  0  0  0
    1.7605    1.8414    0.0000 C   0  0  0  0  0  0  0  0  0  0  0  0
    2.4750    1.4289    0.0000 C   0  0  0  0  0  0  0  0  0  0  0  0
    3.1895    1.8414    0.0000 C   0  0  0  0  0  0  0  0  0  0  0  0
    3.9039    1.4289    0.0000 C   0  0  0  0  0  0  0  0  0  0  0  0
    4.6184    1.8414    0.0000 C   0  0  0  0  0  0  0  0  0  0  0  0
    5.3329    1.4289    0.0000 C   0  0  0  0  0  0  0  0  0  0  0  0
    6.0474    1.8414    0.0000 C   0  0  0  0  0  0  0  0  0  0  0  0
   -0.7954    2.1434    0.0000 H   0  0  0  0  0  0  0  0  0  0  0  0
   -1.0974    1.0164    0.0000 H   0  0  0  0  0  0  0  0  0  0  0  0
    0.0296    0.7144    0.0000 H   0  0  0  0  0  0  0  0  0  0  0  0
    0.3316    2.6664    0.0000 H   0  0  0  0  0  0  0  0  0  0  0  0
    1.0461    0.6039    0.0000 H   0  0  0  0  0  0  0  0  0  0  0  0
    2.1308    2.5786    0.0000 H   0  0  0  0  0  0  0  0  0  0  0  0
    1.3903    2.5786    0.0000 H   0  0  0  0  0  0  0  0  0  0  0  0
    2.1047    0.6917    0.0000 H   0  0  0  0  0  0  0  0  0  0  0  0
    2.8453    0.6917    0.0000 H   0  0  0  0  0  0  0  0  0  0  0  0
    3.5597    2.5786    0.0000 H   0  0  0  0  0  0  0  0  0  0  0  0
    2.8192    2.5786    0.0000 H   0  0  0  0  0  0  0  0  0  0  0  0
    3.5337    0.6917    0.0000 H   0  0  0  0  0  0  0  0  0  0  0  0
    4.2742    0.6917    0.0000 H   0  0  0  0  0  0  0  0  0  0  0  0
    4.9887    2.5786    0.0000 H   0  0  0  0  0  0  0  0  0  0  0  0
    4.2482    2.5786    0.0000 H   0  0  0  0  0  0  0  0  0  0  0  0
    4.9626    0.6917    0.0000 H   0  0  0  0  0  0  0  0  0  0  0  0
    5.7031    0.6917    0.0000 H   0  0  0  0  0  0  0  0  0  0  0  0
    6.4599    1.1269    0.0000 H   0  0  0  0  0  0  0  0  0  0  0  0
    6.7618    2.2539    0.0000 H   0  0  0  0  0  0  0  0  0  0  0  0
    5.6349    2.5559    0.0000 H   0  0  0  0  0  0  0  0  0  0  0  0
  2  1  1  4  0  0  0
  2  3  2  0  0  0  0
  3  4  1  0  0  0  0
  4  5  1  0  0  0  0
  5  6  1  0  0  0  0
  6  7  1  0  0  0  0
  7  8  1  0  0  0  0
  8  9  1  0  0  0  0
  9 10  1  0  0  0  0
  1 11  1  0  0  0  0
  1 12  1  0  0  0  0
  1 13  1  0  0  0  0
  2 14  1  0  0  0  0
  3 15  1  0  0  0  0
  4 16  1  0  0  0  0
  4 17  1  0  0  0  0
  5 18  1  0  0  0  0
  5 19  1  0  0  0  0
  6 20  1  0  0  0  0
  6 21  1  0  0  0  0
  7 22  1  0  0  0  0
  7 23  1  0  0  0  0
  8 24  1  0  0  0  0
  8 25  1  0  0  0  0
  9 26  1  0  0  0  0
  9 27  1  0  0  0  0
 10 28  1  0  0  0  0
 10 29  1  0  0  0  0
 10 30  1  0  0  0  0
M  END
> <id>
2847; 2851

> <casrn>
25339-53-1

> <smiles (First)>


> <Molecular weight>
140.26580810546875

> <name>
dec-1-ene

> <Outcome>
0

> <Molecule (RDKit Mol) (InChI Code)>
InChI=1S/C10H20/c1-3-5-7-9-10-8-6-4-2/h3,5H,4,6-10H2,1-2H3

> <reference>
ECHA

> <molecule_form>
V

$$$$

  Mrv1812 01171911372D          

 17 16  0  0  0  0            999 V2000
   -0.1914    0.7145    0.0000 C   0  0  0  0  0  0  0  0  0  0  0  0
    0.5230    1.1270    0.0000 C   0  0  0  0  0  0  0  0  0  0  0  0
    1.2375    0.7145    0.0000 C   0  0  0  0  0  0  0  0  0  0  0  0
    1.9520    1.1270    0.0000 O   0  0  0  0  0  0  0  0  0  0  0  0
    2.6664    0.7145    0.0000 C   0  0  0  0  0  0  0  0  0  0  0  0
    3.3809    1.1270    0.0000 C   0  0  0  0  0  0  0  0  0  0  0  0
    2.6664   -0.1105    0.0000 O   0  0  0  0  0  0  0  0  0  0  0  0
   -0.6039    1.4290    0.0000 H   0  0  0  0  0  0  0  0  0  0  0  0
   -0.9059    0.3020    0.0000 H   0  0  0  0  0  0  0  0  0  0  0  0
    0.2211    0.0000    0.0000 H   0  0  0  0  0  0  0  0  0  0  0  0
    0.8933    1.8642    0.0000 H   0  0  0  0  0  0  0  0  0  0  0  0
    0.1528    1.8642    0.0000 H   0  0  0  0  0  0  0  0  0  0  0  0
    0.8672   -0.0227    0.0000 H   0  0  0  0  0  0  0  0  0  0  0  0
    1.6078   -0.0227    0.0000 H   0  0  0  0  0  0  0  0  0  0  0  0
    3.7934    0.4125    0.0000 H   0  0  0  0  0  0  0  0  0  0  0  0
    4.0954    1.5395    0.0000 H   0  0  0  0  0  0  0  0  0  0  0  0
    2.9684    1.8415    0.0000 H   0  0  0  0  0  0  0  0  0  0  0  0
  1  2  1  0  0  0  0
  2  3  1  0  0  0  0
  3  4  1  0  0  0  0
  4  5  1  0  0  0  0
  5  6  1  0  0  0  0
  5  7  2  0  0  0  0
  1  8  1  0  0  0  0
  1  9  1  0  0  0  0
  1 10  1  0  0  0  0
  2 11  1  0  0  0  0
  2 12  1  0  0  0  0
  3 13  1  0  0  0  0
  3 14  1  0  0  0  0
  6 15  1  0  0  0  0
  6 16  1  0  0  0  0
  6 17  1  0  0  0  0
M  END
> <id>
3809

> <casrn>
109-60-4

> <smiles (First)>


> <Molecular weight>
102.13169860839844

> <name>
propyl acetate

> <Outcome>
0

> <Molecule (RDKit Mol) (InChI Code)>
InChI=1S/C5H10O2/c1-3-4-7-5(2)6/h3-4H2,1-2H3

> <reference>
ECHA

> <molecule_form>
V

$$$$

  Mrv1812 01171911372D          

 38 37  0  0  0  0            999 V2000
    4.7586    3.5724    0.0000 N   0  0  0  0  0  0  0  0  0  0  0  0
    5.4730    3.9849    0.0000 C   0  0  0  0  0  0  0  0  0  0  0  0
    6.1875    3.5724    0.0000 C   0  0  0  0  0  0  0  0  0  0  0  0
    6.9020    3.9849    0.0000 C   0  0  0  0  0  0  0  0  0  0  0  0
    7.6164    3.5724    0.0000 O   0  0  0  0  0  0  0  0  0  0  0  0
    8.3309    3.9849    0.0000 C   0  0  0  0  0  0  0  0  0  0  0  0
    9.0454    3.5724    0.0000 C   0  0  0  0  0  0  0  0  0  0  0  0
    9.7599    3.9849    0.0000 C   0  0  0  0  0  0  0  0  0  0  0  0
   10.4743    3.5724    0.0000 C   0  0  0  0  0  0  0  0  0  0  0  0
   11.1888    3.9849    0.0000 O   0  0  0  0  0  0  0  0  0  0  0  0
   11.9033    3.5724    0.0000 C   0  0  0  0  0  0  0  0  0  0  0  0
   12.6177    3.9849    0.0000 C   0  0  0  0  0  0  0  0  0  0  0  0
   13.3322    3.5724    0.0000 C   0  0  0  0  0  0  0  0  0  0  0  0
   14.0467    3.9849    0.0000 N   0  0  0  0  0  0  0  0  0  0  0  0
    4.0441    3.9849    0.0000 H   0  0  0  0  0  0  0  0  0  0  0  0
    4.7586    2.7474    0.0000 H   0  0  0  0  0  0  0  0  0  0  0  0
    5.8433    4.7221    0.0000 H   0  0  0  0  0  0  0  0  0  0  0  0
    5.1028    4.7221    0.0000 H   0  0  0  0  0  0  0  0  0  0  0  0
    5.8172    2.8352    0.0000 H   0  0  0  0  0  0  0  0  0  0  0  0
    6.5578    2.8352    0.0000 H   0  0  0  0  0  0  0  0  0  0  0  0
    7.2722    4.7221    0.0000 H   0  0  0  0  0  0  0  0  0  0  0  0
    6.5317    4.7221    0.0000 H   0  0  0  0  0  0  0  0  0  0  0  0
    8.7012    4.7221    0.0000 H   0  0  0  0  0  0  0  0  0  0  0  0
    7.9607    4.7221    0.0000 H   0  0  0  0  0  0  0  0  0  0  0  0
    8.6751    2.8352    0.0000 H   0  0  0  0  0  0  0  0  0  0  0  0
    9.4156    2.8352    0.0000 H   0  0  0  0  0  0  0  0  0  0  0  0
   10.1301    4.7221    0.0000 H   0  0  0  0  0  0  0  0  0  0  0  0
    9.3896    4.7221    0.0000 H   0  0  0  0  0  0  0  0  0  0  0  0
   10.1041    2.8352    0.0000 H   0  0  0  0  0  0  0  0  0  0  0  0
   10.8446    2.8352    0.0000 H   0  0  0  0  0  0  0  0  0  0  0  0
   11.5330    2.8352    0.0000 H   0  0  0  0  0  0  0  0  0  0  0  0
   12.2735    2.8352    0.0000 H   0  0  0  0  0  0  0  0  0  0  0  0
   12.9880    4.7221    0.0000 H   0  0  0  0  0  0  0  0  0  0  0  0
   12.2475    4.7221    0.0000 H   0  0  0  0  0  0  0  0  0  0  0  0
   12.9620    2.8352    0.0000 H   0  0  0  0  0  0  0  0  0  0  0  0
   13.7025    2.8352    0.0000 H   0  0  0  0  0  0  0  0  0  0  0  0
   14.7612    3.5724    0.0000 H   0  0  0  0  0  0  0  0  0  0  0  0
   14.0467    4.8099    0.0000 H   0  0  0  0  0  0  0  0  0  0  0  0
  1  2  1  0  0  0  0
  2  3  1  0  0  0  0
  3  4  1  0  0  0  0
  4  5  1  0  0  0  0
  5  6  1  0  0  0  0
  6  7  1  0  0  0  0
  7  8  1  0  0  0  0
  8  9  1  0  0  0  0
  9 10  1  0  0  0  0
 10 11  1  0  0  0  0
 11 12  1  0  0  0  0
 12 13  1  0  0  0  0
 13 14  1  0  0  0  0
  1 15  1  0  0  0  0
  1 16  1  0  0  0  0
  2 17  1  0  0  0  0
  2 18  1  0  0  0  0
  3 19  1  0  0  0  0
  3 20  1  0  0  0  0
  4 21  1  0  0  0  0
  4 22  1  0  0  0  0
  6 23  1  0  0  0  0
  6 24  1  0  0  0  0
  7 25  1  0  0  0  0
  7 26  1  0  0  0  0
  8 27  1  0  0  0  0
  8 28  1  0  0  0  0
  9 29  1  0  0  0  0
  9 30  1  0  0  0  0
 11 31  1  0  0  0  0
 11 32  1  0  0  0  0
 12 33  1  0  0  0  0
 12 34  1  0  0  0  0
 13 35  1  0  0  0  0
 13 36  1  0  0  0  0
 14 37  1  0  0  0  0
 14 38  1  0  0  0  0
M  END
> <id>
1714

> <casrn>
7300-34-7

> <smiles (First)>


> <Molecular weight>
204.3097686767578

> <name>
3,3'-[butane-1,4-diylbis(oxy)]dipropan-1-amine

> <Outcome>
1

> <Molecule (RDKit Mol) (InChI Code)>
InChI=1S/C10H24N2O2/c11-5-3-9-13-7-1-2-8-14-10-4-6-12/h1-12H2

> <reference>
ECHA

> <molecule_form>
A

$$$$

  Mrv1812 01171911372D          

 27 27  0  0  0  0            999 V2000
   -0.8407    3.0653    0.0000 C   0  0  0  0  0  0  0  0  0  0  0  0
   -0.1263    2.6528    0.0000 N   0  3  0  0  0  0  0  0  0  0  0  0
   -0.5388    1.9383    0.0000 C   0  0  0  0  0  0  0  0  0  0  0  0
    0.2862    3.3673    0.0000 C   0  0  0  0  0  0  0  0  0  0  0  0
    0.5882    2.2403    0.0000 C   0  0  0  0  0  0  0  0  0  0  0  0
    0.5882    1.4153    0.0000 C   0  0  0  0  0  0  0  0  0  0  0  0
    1.3027    1.0028    0.0000 C   0  0  0  0  0  0  0  0  0  0  0  0
    1.3027    0.1778    0.0000 C   0  0  0  0  0  0  0  0  0  0  0  0
    0.5882   -0.2347    0.0000 C   0  0  0  0  0  0  0  0  0  0  0  0
   -0.1263    0.1778    0.0000 C   0  0  0  0  0  0  0  0  0  0  0  0
   -0.1263    1.0028    0.0000 C   0  0  0  0  0  0  0  0  0  0  0  0
   -0.4282    3.7798    0.0000 H   0  0  0  0  0  0  0  0  0  0  0  0
   -1.5552    3.4778    0.0000 H   0  0  0  0  0  0  0  0  0  0  0  0
   -1.2532    2.3508    0.0000 H   0  0  0  0  0  0  0  0  0  0  0  0
   -1.1933    1.4361    0.0000 H   0  0  0  0  0  0  0  0  0  0  0  0
   -0.3252    1.1414    0.0000 H   0  0  0  0  0  0  0  0  0  0  0  0
    0.2792    1.8306    0.0000 H   0  0  0  0  0  0  0  0  0  0  0  0
    0.7885    2.7127    0.0000 H   0  0  0  0  0  0  0  0  0  0  0  0
    1.0831    3.5808    0.0000 H   0  0  0  0  0  0  0  0  0  0  0  0
    0.3939    4.1852    0.0000 H   0  0  0  0  0  0  0  0  0  0  0  0
    1.2414    1.7363    0.0000 H   0  0  0  0  0  0  0  0  0  0  0  0
    1.3863    2.4494    0.0000 H   0  0  0  0  0  0  0  0  0  0  0  0
    2.1270    1.0372    0.0000 H   0  0  0  0  0  0  0  0  0  0  0  0
    2.0172   -0.2347    0.0000 H   0  0  0  0  0  0  0  0  0  0  0  0
    0.5882   -1.0597    0.0000 H   0  0  0  0  0  0  0  0  0  0  0  0
   -0.8407   -0.2347    0.0000 H   0  0  0  0  0  0  0  0  0  0  0  0
   -0.8576    0.6210    0.0000 H   0  0  0  0  0  0  0  0  0  0  0  0
  1  2  1  0  0  0  0
  2  3  1  0  0  0  0
  2  4  1  0  0  0  0
  2  5  1  0  0  0  0
  5  6  1  0  0  0  0
  6  7  4  0  0  0  0
  7  8  4  0  0  0  0
  8  9  4  0  0  0  0
  9 10  4  0  0  0  0
 10 11  4  0  0  0  0
  6 11  4  0  0  0  0
  1 12  1  0  0  0  0
  1 13  1  0  0  0  0
  1 14  1  0  0  0  0
  3 15  1  0  0  0  0
  3 16  1  0  0  0  0
  3 17  1  0  0  0  0
  4 18  1  0  0  0  0
  4 19  1  0  0  0  0
  4 20  1  0  0  0  0
  5 21  1  0  0  0  0
  5 22  1  0  0  0  0
  7 23  1  0  0  0  0
  8 24  1  0  0  0  0
  9 25  1  0  0  0  0
 10 26  1  0  0  0  0
 11 27  1  0  0  0  0
M  CHG  1   2   1
M  END
> <id>
2369

> <casrn>
56-93-9

> <smiles (First)>


> <Molecular weight>
150.24073791503906

> <name>
N,N,N-trimethyl(phenyl)methanaminium chloride

> <Outcome>
1

> <Molecule (RDKit Mol) (InChI Code)>
InChI=1S/C10H16N/c1-11(2,3)9-10-7-5-4-6-8-10/h4-8H,9H2,1-3H3/q+1

> <reference>
ECHA

> <molecule_form>
A

$$$$

  Mrv1812 01171911372D          

 17 16  0  0  0  0            999 V2000
   -0.2604    0.7129    0.0000 C   0  0  0  0  0  0  0  0  0  0  0  0
    0.4541    1.1254    0.0000 C   0  0  0  0  0  0  0  0  0  0  0  0
    1.1686    0.7129    0.0000 C   0  0  0  0  0  0  0  0  0  0  0  0
    1.1686   -0.1121    0.0000 C   0  0  0  0  0  0  0  0  0  0  0  0
    1.8831    1.1254    0.0000 O   0  0  0  0  0  0  0  0  0  0  0  0
    2.5975    0.7129    0.0000 C   0  0  0  0  0  0  0  0  0  0  0  0
    3.3120    1.1254    0.0000 O   0  0  0  0  0  0  0  0  0  0  0  0
    2.5975   -0.1121    0.0000 Cl  0  0  0  0  0  0  0  0  0  0  0  0
   -0.6729    1.4274    0.0000 H   0  0  0  0  0  0  0  0  0  0  0  0
   -0.9748    0.3004    0.0000 H   0  0  0  0  0  0  0  0  0  0  0  0
    0.1521   -0.0015    0.0000 H   0  0  0  0  0  0  0  0  0  0  0  0
    0.8244    1.8627    0.0000 H   0  0  0  0  0  0  0  0  0  0  0  0
    0.0839    1.8627    0.0000 H   0  0  0  0  0  0  0  0  0  0  0  0
    0.4541    0.3004    0.0000 H   0  0  0  0  0  0  0  0  0  0  0  0
    0.5852   -0.6954    0.0000 H   0  0  0  0  0  0  0  0  0  0  0  0
    1.5811   -0.8265    0.0000 H   0  0  0  0  0  0  0  0  0  0  0  0
    1.9655    0.1014    0.0000 H   0  0  0  0  0  0  0  0  0  0  0  0
  1  2  1  0  0  0  0
  2  3  1  0  0  0  0
  3  4  1  0  0  0  0
  3  5  1  0  0  0  0
  5  6  1  0  0  0  0
  6  7  2  0  0  0  0
  6  8  1  0  0  0  0
  1  9  1  0  0  0  0
  1 10  1  0  0  0  0
  1 11  1  0  0  0  0
  2 12  1  0  0  0  0
  2 13  1  0  0  0  0
  3 14  1  0  0  0  0
  4 15  1  0  0  0  0
  4 16  1  0  0  0  0
  4 17  1  0  0  0  0
M  END
> <id>
3818

> <casrn>
17462-58-7

> <smiles (First)>


> <Molecular weight>
136.57676696777344

> <name>
sec-butyl chlorocarbonate

> <Outcome>
1

> <Molecule (RDKit Mol) (InChI Code)>
InChI=1S/C5H9ClO2/c1-3-4(2)8-5(6)7/h4H,3H2,1-2H3

> <reference>
ECHA

> <molecule_form>
V

$$$$

  Mrv1812 01171911372D          

 23 22  0  0  0  0            999 V2000
    1.6438    1.8848    0.0000 C   0  0  0  0  0  0  0  0  0  0  0  0
    2.3583    1.4723    0.0000 C   0  0  0  0  0  0  0  0  0  0  0  0
    3.0727    1.8848    0.0000 C   0  0  0  0  0  0  0  0  0  0  0  0
    3.0727    2.7098    0.0000 C   0  0  0  0  0  0  0  0  0  0  0  0
    3.7872    1.4723    0.0000 N   0  0  0  0  0  0  0  0  0  0  0  0
    4.5017    1.8848    0.0000 C   0  0  0  0  0  0  0  0  0  0  0  0
    5.2161    1.4723    0.0000 C   0  0  0  0  0  0  0  0  0  0  0  0
    5.9306    1.8848    0.0000 O   0  0  0  0  0  0  0  0  0  0  0  0
    2.0563    2.5992    0.0000 H   0  0  0  0  0  0  0  0  0  0  0  0
    0.9293    2.2973    0.0000 H   0  0  0  0  0  0  0  0  0  0  0  0
    1.2313    1.1703    0.0000 H   0  0  0  0  0  0  0  0  0  0  0  0
    1.9880    0.7350    0.0000 H   0  0  0  0  0  0  0  0  0  0  0  0
    2.7285    0.7350    0.0000 H   0  0  0  0  0  0  0  0  0  0  0  0
    2.3583    2.2973    0.0000 H   0  0  0  0  0  0  0  0  0  0  0  0
    3.8696    2.4962    0.0000 H   0  0  0  0  0  0  0  0  0  0  0  0
    3.4852    3.4242    0.0000 H   0  0  0  0  0  0  0  0  0  0  0  0
    2.4894    3.2931    0.0000 H   0  0  0  0  0  0  0  0  0  0  0  0
    3.7872    0.6473    0.0000 H   0  0  0  0  0  0  0  0  0  0  0  0
    4.9985    2.5434    0.0000 H   0  0  0  0  0  0  0  0  0  0  0  0
    4.5017    1.0598    0.0000 H   0  0  0  0  0  0  0  0  0  0  0  0
    5.3594    0.6598    0.0000 H   0  0  0  0  0  0  0  0  0  0  0  0
    5.8481    0.9420    0.0000 H   0  0  0  0  0  0  0  0  0  0  0  0
    6.3739    2.5806    0.0000 H   0  0  0  0  0  0  0  0  0  0  0  0
  1  2  1  0  0  0  0
  2  3  1  0  0  0  0
  3  4  1  0  0  0  0
  3  5  1  0  0  0  0
  5  6  1  0  0  0  0
  6  7  1  0  0  0  0
  7  8  1  0  0  0  0
  1  9  1  0  0  0  0
  1 10  1  0  0  0  0
  1 11  1  0  0  0  0
  2 12  1  0  0  0  0
  2 13  1  0  0  0  0
  3 14  1  0  0  0  0
  4 15  1  0  0  0  0
  4 16  1  0  0  0  0
  4 17  1  0  0  0  0
  5 18  1  0  0  0  0
  6 19  1  0  0  0  0
  6 20  1  0  0  0  0
  7 21  1  0  0  0  0
  7 22  1  0  0  0  0
  8 23  1  0  0  0  0
M  END
> <id>
1357

> <casrn>
35265-04-4

> <smiles (First)>


> <Molecular weight>
117.18939971923828

> <name>
2-(sec-butylamino)ethanol

> <Outcome>
1

> <Molecule (RDKit Mol) (InChI Code)>
InChI=1S/C6H15NO/c1-3-6(2)7-4-5-8/h6-8H,3-5H2,1-2H3

> <reference>
ECHA

> <molecule_form>
V

$$$$

  Mrv1812 01171911372D          

 33 33  0  0  0  0            999 V2000
    0.7881    3.0837    0.0000 C   0  0  0  0  0  0  0  0  0  0  0  0
    0.7881    2.2587    0.0000 C   0  0  0  0  0  0  0  0  0  0  0  0
   -0.0369    2.2587    0.0000 C   0  0  0  0  0  0  0  0  0  0  0  0
    1.6131    2.2587    0.0000 C   0  0  0  0  0  0  0  0  0  0  0  0
    0.7881    1.4337    0.0000 C   0  0  0  0  0  0  0  0  0  0  0  0
    1.5026    1.0212    0.0000 C   0  0  0  0  0  0  0  0  0  0  0  0
    1.5026    0.1962    0.0000 C   0  0  0  0  0  0  0  0  0  0  0  0
    0.7881   -0.2163    0.0000 C   0  0  0  0  0  0  0  0  0  0  0  0
    0.7881   -1.0413    0.0000 O   0  0  0  0  0  0  0  0  0  0  0  0
    0.0737   -1.4538    0.0000 C   0  0  0  0  0  0  0  0  0  0  0  0
    0.0737   -2.2788    0.0000 O   0  0  0  0  0  0  0  0  0  0  0  0
   -0.6408   -1.0413    0.0000 Cl  0  0  0  0  0  0  0  0  0  0  0  0
    0.0737    0.1962    0.0000 C   0  0  0  0  0  0  0  0  0  0  0  0
    0.0737    1.0212    0.0000 C   0  0  0  0  0  0  0  0  0  0  0  0
    1.6131    3.0837    0.0000 H   0  0  0  0  0  0  0  0  0  0  0  0
    0.7881    3.9087    0.0000 H   0  0  0  0  0  0  0  0  0  0  0  0
   -0.0369    3.0837    0.0000 H   0  0  0  0  0  0  0  0  0  0  0  0
   -0.7991    2.5744    0.0000 H   0  0  0  0  0  0  0  0  0  0  0  0
   -0.6202    1.6754    0.0000 H   0  0  0  0  0  0  0  0  0  0  0  0
    0.2788    1.4965    0.0000 H   0  0  0  0  0  0  0  0  0  0  0  0
    1.2974    1.4965    0.0000 H   0  0  0  0  0  0  0  0  0  0  0  0
    2.1965    1.6754    0.0000 H   0  0  0  0  0  0  0  0  0  0  0  0
    2.3753    2.5744    0.0000 H   0  0  0  0  0  0  0  0  0  0  0  0
    0.7881    0.6087    0.0000 H   0  0  0  0  0  0  0  0  0  0  0  0
    2.0802    0.4322    0.0000 H   0  0  0  0  0  0  0  0  0  0  0  0
    2.3274    1.0050    0.0000 H   0  0  0  0  0  0  0  0  0  0  0  0
    1.4653   -0.6279    0.0000 H   0  0  0  0  0  0  0  0  0  0  0  0
    2.1768   -0.2792    0.0000 H   0  0  0  0  0  0  0  0  0  0  0  0
    0.0737   -0.6288    0.0000 H   0  0  0  0  0  0  0  0  0  0  0  0
   -0.7016    0.4784    0.0000 H   0  0  0  0  0  0  0  0  0  0  0  0
   -0.7016   -0.0859    0.0000 H   0  0  0  0  0  0  0  0  0  0  0  0
   -0.7492    1.0810    0.0000 H   0  0  0  0  0  0  0  0  0  0  0  0
   -0.0932    1.8292    0.0000 H   0  0  0  0  0  0  0  0  0  0  0  0
  1  2  1  0  0  0  0
  2  3  1  0  0  0  0
  2  4  1  0  0  0  0
  2  5  1  0  0  0  0
  5  6  1  0  0  0  0
  6  7  1  0  0  0  0
  7  8  1  0  0  0  0
  8  9  1  0  0  0  0
  9 10  1  0  0  0  0
 10 11  2  0  0  0  0
 10 12  1  0  0  0  0
  8 13  1  0  0  0  0
 13 14  1  0  0  0  0
  5 14  1  0  0  0  0
  1 15  1  0  0  0  0
  1 16  1  0  0  0  0
  1 17  1  0  0  0  0
  3 18  1  0  0  0  0
  3 19  1  0  0  0  0
  3 20  1  0  0  0  0
  4 21  1  0  0  0  0
  4 22  1  0  0  0  0
  4 23  1  0  0  0  0
  5 24  1  0  0  0  0
  6 25  1  0  0  0  0
  6 26  1  0  0  0  0
  7 27  1  0  0  0  0
  7 28  1  0  0  0  0
  8 29  1  0  0  0  0
 13 30  1  0  0  0  0
 13 31  1  0  0  0  0
 14 32  1  0  0  0  0
 14 33  1  0  0  0  0
M  END
> <id>
1852

> <casrn>
42125-46-2

> <smiles (First)>


> <Molecular weight>
218.72036743164062

> <name>
4-tert-butylcyclohexyl chlorocarbonate

> <Outcome>
1

> <Molecule (RDKit Mol) (InChI Code)>
InChI=1S/C11H19ClO2/c1-11(2,3)8-4-6-9(7-5-8)14-10(12)13/h8-9H,4-7H2,1-3H3

> <reference>
ECHA

> <molecule_form>
A

$$$$

  Mrv1812 01171911372D          

 15 15  0  0  0  0            999 V2000
    0.7145    2.0625    0.0000 C   0  0  0  0  0  0  0  0  0  0  0  0
    0.7145    1.2375    0.0000 C   0  0  0  0  0  0  0  0  0  0  0  0
    1.4289    0.8250    0.0000 C   0  0  0  0  0  0  0  0  0  0  0  0
    1.4289    0.0000    0.0000 C   0  0  0  0  0  0  0  0  0  0  0  0
    0.7145   -0.4125    0.0000 C   0  0  0  0  0  0  0  0  0  0  0  0
    0.0000    0.0000    0.0000 C   0  0  0  0  0  0  0  0  0  0  0  0
    0.0000    0.8250    0.0000 C   0  0  0  0  0  0  0  0  0  0  0  0
    1.5395    2.0625    0.0000 H   0  0  0  0  0  0  0  0  0  0  0  0
    0.7145    2.8875    0.0000 H   0  0  0  0  0  0  0  0  0  0  0  0
   -0.1105    2.0625    0.0000 H   0  0  0  0  0  0  0  0  0  0  0  0
    2.1434    1.2375    0.0000 H   0  0  0  0  0  0  0  0  0  0  0  0
    2.1434   -0.4125    0.0000 H   0  0  0  0  0  0  0  0  0  0  0  0
    0.7145   -1.2375    0.0000 H   0  0  0  0  0  0  0  0  0  0  0  0
   -0.7145   -0.4125    0.0000 H   0  0  0  0  0  0  0  0  0  0  0  0
   -0.7145    1.2375    0.0000 H   0  0  0  0  0  0  0  0  0  0  0  0
  1  2  1  0  0  0  0
  2  3  4  0  0  0  0
  3  4  4  0  0  0  0
  4  5  4  0  0  0  0
  5  6  4  0  0  0  0
  6  7  4  0  0  0  0
  2  7  4  0  0  0  0
  1  8  1  0  0  0  0
  1  9  1  0  0  0  0
  1 10  1  0  0  0  0
  3 11  1  0  0  0  0
  4 12  1  0  0  0  0
  5 13  1  0  0  0  0
  6 14  1  0  0  0  0
  7 15  1  0  0  0  0
M  END
> <id>
4011

> <casrn>
108-88-3

> <smiles (First)>


> <Molecular weight>
92.13842010498047

> <name>
toluene

> <Outcome>
0

> <Molecule (RDKit Mol) (InChI Code)>
InChI=1S/C7H8/c1-7-5-3-2-4-6-7/h2-6H,1H3

> <reference>
ECHA

> <molecule_form>
V

$$$$

  Mrv1812 01171911372D          

 15 16  0  0  0  0            999 V2000
   -0.1712   -0.6979    0.0000 S   0  0  0  0  0  0  0  0  0  0  0  0
    0.6538   -0.6979    0.0000 C   0  0  0  0  0  0  0  0  0  0  0  0
    1.1387   -0.0305    0.0000 N   0  0  0  0  0  0  0  0  0  0  0  0
    1.9233   -0.2854    0.0000 C   0  0  0  0  0  0  0  0  0  0  0  0
    2.6378    0.1271    0.0000 C   0  0  0  0  0  0  0  0  0  0  0  0
    3.3523   -0.2854    0.0000 C   0  0  0  0  0  0  0  0  0  0  0  0
    3.3523   -1.1104    0.0000 C   0  0  0  0  0  0  0  0  0  0  0  0
    2.6378   -1.5229    0.0000 C   0  0  0  0  0  0  0  0  0  0  0  0
    1.9233   -1.1104    0.0000 C   0  0  0  0  0  0  0  0  0  0  0  0
    1.1387   -1.3653    0.0000 S   0  0  0  0  0  0  0  0  0  0  0  0
    0.8838    0.7542    0.0000 H   0  0  0  0  0  0  0  0  0  0  0  0
    2.6378    0.9521    0.0000 H   0  0  0  0  0  0  0  0  0  0  0  0
    4.0667    0.1271    0.0000 H   0  0  0  0  0  0  0  0  0  0  0  0
    4.0667   -1.5229    0.0000 H   0  0  0  0  0  0  0  0  0  0  0  0
    2.6378   -2.3479    0.0000 H   0  0  0  0  0  0  0  0  0  0  0  0
  1  2  2  0  0  0  0
  2  3  1  0  0  0  0
  3  4  1  0  0  0  0
  4  5  4  0  0  0  0
  5  6  4  0  0  0  0
  6  7  4  0  0  0  0
  7  8  4  0  0  0  0
  8  9  4  0  0  0  0
  4  9  4  0  0  0  0
  9 10  1  0  0  0  0
  2 10  1  0  0  0  0
  3 11  1  0  0  0  0
  5 12  1  0  0  0  0
  6 13  1  0  0  0  0
  7 14  1  0  0  0  0
  8 15  1  0  0  0  0
M  END
> <id>
970

> <casrn>
149-30-4

> <smiles (First)>


> <Molecular weight>
167.2512969970703

> <name>
1,3-benzothiazole-2-thiol

> <Outcome>
0

> <Molecule (RDKit Mol) (InChI Code)>
InChI=1S/C7H5NS2/c9-7-8-5-3-1-2-4-6(5)10-7/h1-4H,(H,8,9)

> <reference>
ECHA

> <molecule_form>
A

$$$$

  Mrv1812 01171911372D          

  9  8  0  0  0  0            999 V2000
    1.2375    0.7145    0.0000 N   0  0  0  0  0  0  0  0  0  0  0  0
    0.8250   -0.0000    0.0000 C   0  0  0  0  0  0  0  0  0  0  0  0
    1.2375   -0.7145    0.0000 N   0  0  0  0  0  0  0  0  0  0  0  0
   -0.0000   -0.0000    0.0000 N   0  0  0  0  0  0  0  0  0  0  0  0
    2.0625    0.7145    0.0000 H   0  0  0  0  0  0  0  0  0  0  0  0
    0.8250   -1.4289    0.0000 H   0  0  0  0  0  0  0  0  0  0  0  0
    2.0625   -0.7145    0.0000 H   0  0  0  0  0  0  0  0  0  0  0  0
   -0.4125    0.7145    0.0000 H   0  0  0  0  0  0  0  0  0  0  0  0
   -0.4125   -0.7145    0.0000 H   0  0  0  0  0  0  0  0  0  0  0  0
  1  2  2  0  0  0  0
  2  3  1  0  0  0  0
  2  4  1  0  0  0  0
  1  5  1  0  0  0  0
  3  6  1  0  0  0  0
  3  7  1  0  0  0  0
  4  8  1  0  0  0  0
  4  9  1  0  0  0  0
M  END
> <id>
3229

> <casrn>
50-01-1

> <smiles (First)>


> <Molecular weight>
59.070499420166016

> <name>
guanidine hydrochloride

> <Outcome>
1

> <Molecule (RDKit Mol) (InChI Code)>
InChI=1S/CH5N3/c2-1(3)4/h(H5,2,3,4)

> <reference>
ECHA

> <molecule_form>
A

$$$$

  Mrv1812 01171911372D          

 23 24  0  0  0  0            999 V2000
   -0.0199   -2.4558    0.0000 C   0  0  0  0  0  0  0  0  0  0  0  0
    0.6946   -2.0433    0.0000 C   0  0  0  0  0  0  0  0  0  0  0  0
    0.6946   -1.2183    0.0000 C   0  0  0  0  0  0  0  0  0  0  0  0
   -0.0900   -1.4732    0.0000 C   0  0  0  0  0  0  0  0  0  0  0  0
   -0.5750   -0.8058    0.0000 O   0  0  0  0  0  0  0  0  0  0  0  0
   -0.0900   -0.1384    0.0000 C   0  0  0  0  0  0  0  0  0  0  0  0
    0.6946   -0.3933    0.0000 N   0  0  0  0  0  0  0  0  0  0  0  0
    1.4792   -0.1384    0.0000 C   0  0  0  0  0  0  0  0  0  0  0  0
    1.9641   -0.8058    0.0000 O   0  0  0  0  0  0  0  0  0  0  0  0
    1.4792   -1.4732    0.0000 C   0  0  0  0  0  0  0  0  0  0  0  0
   -0.4324   -1.7413    0.0000 H   0  0  0  0  0  0  0  0  0  0  0  0
   -0.7344   -2.8683    0.0000 H   0  0  0  0  0  0  0  0  0  0  0  0
    0.3926   -3.1703    0.0000 H   0  0  0  0  0  0  0  0  0  0  0  0
    0.8708   -2.8493    0.0000 H   0  0  0  0  0  0  0  0  0  0  0  0
    1.3592   -2.5321    0.0000 H   0  0  0  0  0  0  0  0  0  0  0  0
   -0.0752   -2.2981    0.0000 H   0  0  0  0  0  0  0  0  0  0  0  0
    0.1649   -0.6886    0.0000 H   0  0  0  0  0  0  0  0  0  0  0  0
    0.0532    0.6741    0.0000 H   0  0  0  0  0  0  0  0  0  0  0  0
   -0.6835    0.4347    0.0000 H   0  0  0  0  0  0  0  0  0  0  0  0
    2.0727    0.4347    0.0000 H   0  0  0  0  0  0  0  0  0  0  0  0
    1.3359    0.6741    0.0000 H   0  0  0  0  0  0  0  0  0  0  0  0
    1.8015   -2.2326    0.0000 H   0  0  0  0  0  0  0  0  0  0  0  0
    2.2386   -1.7956    0.0000 H   0  0  0  0  0  0  0  0  0  0  0  0
  1  2  1  0  0  0  0
  2  3  1  0  0  0  0
  3  4  1  0  0  0  0
  4  5  1  0  0  0  0
  5  6  1  0  0  0  0
  6  7  1  0  0  0  0
  3  7  1  0  0  0  0
  7  8  1  0  0  0  0
  8  9  1  0  0  0  0
  9 10  1  0  0  0  0
  3 10  1  0  0  0  0
  1 11  1  0  0  0  0
  1 12  1  0  0  0  0
  1 13  1  0  0  0  0
  2 14  1  0  0  0  0
  2 15  1  0  0  0  0
  4 16  1  0  0  0  0
  4 17  1  0  0  0  0
  6 18  1  0  0  0  0
  6 19  1  0  0  0  0
  8 20  1  0  0  0  0
  8 21  1  0  0  0  0
 10 22  1  0  0  0  0
 10 23  1  0  0  0  0
M  END
> <id>
1892

> <casrn>
7747-35-5

> <smiles (First)>


> <Molecular weight>
143.18362426757812

> <name>
7a-ethyldihydro-1H-[1,3]oxazolo[3,4-c][1,3]oxazole

> <Outcome>
1

> <Molecule (RDKit Mol) (InChI Code)>
InChI=1S/C7H13NO2/c1-2-7-3-9-5-8(7)6-10-4-7/h2-6H2,1H3

> <reference>
ECHA

> <molecule_form>
A

$$$$

  Mrv1812 01171911372D          

 20 20  0  0  0  0            999 V2000
    0.8559    1.3617    0.0000 C   0  0  0  0  0  0  0  0  0  0  0  0
    1.5992    1.0038    0.0000 C   0  0  0  0  0  0  0  0  0  0  0  0
    1.7827    0.1995    0.0000 C   0  0  0  0  0  0  0  0  0  0  0  0
    1.2684   -0.4456    0.0000 C   0  0  0  0  0  0  0  0  0  0  0  0
    0.4434   -0.4456    0.0000 N   0  0  0  0  0  0  0  0  0  0  0  0
   -0.0710    0.1995    0.0000 C   0  0  0  0  0  0  0  0  0  0  0  0
    0.1126    1.0038    0.0000 C   0  0  0  0  0  0  0  0  0  0  0  0
    1.2138    2.1050    0.0000 H   0  0  0  0  0  0  0  0  0  0  0  0
    0.4979    2.1050    0.0000 H   0  0  0  0  0  0  0  0  0  0  0  0
    2.4035    1.1874    0.0000 H   0  0  0  0  0  0  0  0  0  0  0  0
    1.9571    1.7471    0.0000 H   0  0  0  0  0  0  0  0  0  0  0  0
    2.4277   -0.3149    0.0000 H   0  0  0  0  0  0  0  0  0  0  0  0
    2.5870    0.3830    0.0000 H   0  0  0  0  0  0  0  0  0  0  0  0
    1.2684   -1.2706    0.0000 H   0  0  0  0  0  0  0  0  0  0  0  0
    1.9134   -0.9599    0.0000 H   0  0  0  0  0  0  0  0  0  0  0  0
    0.0854   -1.1889    0.0000 H   0  0  0  0  0  0  0  0  0  0  0  0
   -0.8753    0.3830    0.0000 H   0  0  0  0  0  0  0  0  0  0  0  0
   -0.7160   -0.3149    0.0000 H   0  0  0  0  0  0  0  0  0  0  0  0
   -0.2454    1.7471    0.0000 H   0  0  0  0  0  0  0  0  0  0  0  0
   -0.6918    1.1874    0.0000 H   0  0  0  0  0  0  0  0  0  0  0  0
  1  2  1  0  0  0  0
  2  3  1  0  0  0  0
  3  4  1  0  0  0  0
  4  5  1  0  0  0  0
  5  6  1  0  0  0  0
  6  7  1  0  0  0  0
  1  7  1  0  0  0  0
  1  8  1  0  0  0  0
  1  9  1  0  0  0  0
  2 10  1  0  0  0  0
  2 11  1  0  0  0  0
  3 12  1  0  0  0  0
  3 13  1  0  0  0  0
  4 14  1  0  0  0  0
  4 15  1  0  0  0  0
  5 16  1  0  0  0  0
  6 17  1  0  0  0  0
  6 18  1  0  0  0  0
  7 19  1  0  0  0  0
  7 20  1  0  0  0  0
M  END
> <id>
2605

> <casrn>
111-49-9

> <smiles (First)>


> <Molecular weight>
99.17411804199219

> <name>
azepane

> <Outcome>
1

> <Molecule (RDKit Mol) (InChI Code)>
InChI=1S/C6H13N/c1-2-4-6-7-5-3-1/h7H,1-6H2

> <reference>
ECHA

> <molecule_form>
V

$$$$

  Mrv1812 01171911372D          

 21 20  0  0  0  0            999 V2000
    0.1128   -1.4806    0.0000 C   0  0  0  0  0  0  0  0  0  0  0  0
    0.9378   -1.4806    0.0000 O   0  0  0  0  0  0  0  0  0  0  0  0
    1.3503   -0.7662    0.0000 C   0  0  0  0  0  0  0  0  0  0  0  0
    2.1753   -0.7662    0.0000 O   0  0  0  0  0  0  0  0  0  0  0  0
    2.5878   -0.0517    0.0000 C   0  0  0  0  0  0  0  0  0  0  0  0
    0.9378   -0.0517    0.0000 N   0  0  0  0  0  0  0  0  0  0  0  0
    1.3503    0.6628    0.0000 C   0  0  0  0  0  0  0  0  0  0  0  0
    0.1128   -0.0517    0.0000 C   0  0  0  0  0  0  0  0  0  0  0  0
    0.1128   -0.6556    0.0000 H   0  0  0  0  0  0  0  0  0  0  0  0
   -0.7122   -1.4806    0.0000 H   0  0  0  0  0  0  0  0  0  0  0  0
    0.1128   -2.3056    0.0000 H   0  0  0  0  0  0  0  0  0  0  0  0
    1.7628   -1.4806    0.0000 H   0  0  0  0  0  0  0  0  0  0  0  0
    3.3023   -0.4642    0.0000 H   0  0  0  0  0  0  0  0  0  0  0  0
    3.0003    0.6628    0.0000 H   0  0  0  0  0  0  0  0  0  0  0  0
    1.8733    0.3608    0.0000 H   0  0  0  0  0  0  0  0  0  0  0  0
    2.0048    1.1650    0.0000 H   0  0  0  0  0  0  0  0  0  0  0  0
    1.1368    1.4597    0.0000 H   0  0  0  0  0  0  0  0  0  0  0  0
    0.5324    0.7705    0.0000 H   0  0  0  0  0  0  0  0  0  0  0  0
   -0.2322    0.6977    0.0000 H   0  0  0  0  0  0  0  0  0  0  0  0
   -0.6893    0.1412    0.0000 H   0  0  0  0  0  0  0  0  0  0  0  0
   -0.5352   -0.5623    0.0000 H   0  0  0  0  0  0  0  0  0  0  0  0
  1  2  1  0  0  0  0
  2  3  1  0  0  0  0
  3  4  1  0  0  0  0
  4  5  1  0  0  0  0
  3  6  1  0  0  0  0
  6  7  1  0  0  0  0
  6  8  1  0  0  0  0
  1  9  1  0  0  0  0
  1 10  1  0  0  0  0
  1 11  1  0  0  0  0
  3 12  1  0  0  0  0
  5 13  1  0  0  0  0
  5 14  1  0  0  0  0
  5 15  1  0  0  0  0
  7 16  1  0  0  0  0
  7 17  1  0  0  0  0
  7 18  1  0  0  0  0
  8 19  1  0  0  0  0
  8 20  1  0  0  0  0
  8 21  1  0  0  0  0
M  END
> <id>
897

> <casrn>
4637-24-5

> <smiles (First)>


> <Molecular weight>
120.17015838623047

> <name>
1,1-dimethoxy-N,N-dimethylmethanamine

> <Outcome>
1

> <Molecule (RDKit Mol) (InChI Code)>
InChI=1S/C5H13NO2/c1-6(2)5(7-3)8-4/h5H,1-4H3

> <reference>
ECHA

> <molecule_form>
V

$$$$

  Mrv1812 01171911372D          

 19 18  0  0  0  0            999 V2000
    1.2107    2.1392    0.0000 C   0  0  0  0  0  0  0  0  0  0  0  0
    0.7982    1.4247    0.0000 C   0  0  0  0  0  0  0  0  0  0  0  0
    1.2107    0.7102    0.0000 C   0  0  0  0  0  0  0  0  0  0  0  0
    0.7982   -0.0043    0.0000 N   0  0  0  0  0  0  0  0  0  0  0  0
    1.2107   -0.7187    0.0000 C   0  0  0  0  0  0  0  0  0  0  0  0
   -0.0268   -0.0043    0.0000 C   0  0  0  0  0  0  0  0  0  0  0  0
    1.9252    1.7267    0.0000 H   0  0  0  0  0  0  0  0  0  0  0  0
    1.6232    2.8536    0.0000 H   0  0  0  0  0  0  0  0  0  0  0  0
    0.4962    2.5517    0.0000 H   0  0  0  0  0  0  0  0  0  0  0  0
    0.0609    1.7949    0.0000 H   0  0  0  0  0  0  0  0  0  0  0  0
    0.0609    1.0544    0.0000 H   0  0  0  0  0  0  0  0  0  0  0  0
    1.9479    0.3400    0.0000 H   0  0  0  0  0  0  0  0  0  0  0  0
    1.9479    1.0805    0.0000 H   0  0  0  0  0  0  0  0  0  0  0  0
    0.4962   -1.1312    0.0000 H   0  0  0  0  0  0  0  0  0  0  0  0
    1.6232   -1.4332    0.0000 H   0  0  0  0  0  0  0  0  0  0  0  0
    1.9252   -0.3062    0.0000 H   0  0  0  0  0  0  0  0  0  0  0  0
   -0.0268    0.8207    0.0000 H   0  0  0  0  0  0  0  0  0  0  0  0
   -0.8518   -0.0043    0.0000 H   0  0  0  0  0  0  0  0  0  0  0  0
   -0.0268   -0.8293    0.0000 H   0  0  0  0  0  0  0  0  0  0  0  0
  1  2  1  0  0  0  0
  2  3  1  0  0  0  0
  3  4  1  0  0  0  0
  4  5  1  0  0  0  0
  4  6  1  0  0  0  0
  1  7  1  0  0  0  0
  1  8  1  0  0  0  0
  1  9  1  0  0  0  0
  2 10  1  0  0  0  0
  2 11  1  0  0  0  0
  3 12  1  0  0  0  0
  3 13  1  0  0  0  0
  5 14  1  0  0  0  0
  5 15  1  0  0  0  0
  5 16  1  0  0  0  0
  6 17  1  0  0  0  0
  6 18  1  0  0  0  0
  6 19  1  0  0  0  0
M  END
> <id>
3003

> <casrn>
926-63-6

> <smiles (First)>


> <Molecular weight>
87.16342163085938

> <name>
dimethyl(propyl)amine

> <Outcome>
1

> <Molecule (RDKit Mol) (InChI Code)>
InChI=1S/C5H13N/c1-4-5-6(2)3/h4-5H2,1-3H3

> <reference>
ECHA

> <molecule_form>
V

$$$$

  Mrv1812 01171911372D          

 15 14  0  0  0  0            999 V2000
    2.1837   -0.6993    0.0000 C   0  0  0  0  0  0  0  0  0  0  0  0
    1.3587   -0.6993    0.0000 C   0  0  0  0  0  0  0  0  0  0  0  0
    0.9462   -1.4137    0.0000 C   0  0  0  0  0  0  0  0  0  0  0  0
    0.9462    0.0152    0.0000 C   0  0  0  0  0  0  0  0  0  0  0  0
    0.1212    0.0152    0.0000 O   0  0  0  0  0  0  0  0  0  0  0  0
    2.1837   -1.5243    0.0000 H   0  0  0  0  0  0  0  0  0  0  0  0
    3.0087   -0.6993    0.0000 H   0  0  0  0  0  0  0  0  0  0  0  0
    2.1837    0.1257    0.0000 H   0  0  0  0  0  0  0  0  0  0  0  0
    1.7712   -1.4137    0.0000 H   0  0  0  0  0  0  0  0  0  0  0  0
    0.3628   -0.8304    0.0000 H   0  0  0  0  0  0  0  0  0  0  0  0
    0.2317   -1.8262    0.0000 H   0  0  0  0  0  0  0  0  0  0  0  0
    1.1597   -2.2106    0.0000 H   0  0  0  0  0  0  0  0  0  0  0  0
    1.6355    0.4685    0.0000 H   0  0  0  0  0  0  0  0  0  0  0  0
    0.9942    0.8388    0.0000 H   0  0  0  0  0  0  0  0  0  0  0  0
   -0.5374    0.5120    0.0000 H   0  0  0  0  0  0  0  0  0  0  0  0
  1  2  1  0  0  0  0
  2  3  1  0  0  0  0
  2  4  1  0  0  0  0
  4  5  1  0  0  0  0
  1  6  1  0  0  0  0
  1  7  1  0  0  0  0
  1  8  1  0  0  0  0
  2  9  1  0  0  0  0
  3 10  1  0  0  0  0
  3 11  1  0  0  0  0
  3 12  1  0  0  0  0
  4 13  1  0  0  0  0
  4 14  1  0  0  0  0
  5 15  1  0  0  0  0
M  END
> <id>
1656

> <casrn>
78-83-1

> <smiles (First)>


> <Molecular weight>
74.1216049194336

> <name>
2-methylpropan-1-ol

> <Outcome>
0

> <Molecule (RDKit Mol) (InChI Code)>
InChI=1S/C4H10O/c1-4(2)3-5/h4-5H,3H2,1-2H3

> <reference>
ECHA

> <molecule_form>
V

$$$$

  Mrv1812 01171911372D          

 50 51  0  0  0  0            999 V2000
    1.4355   -5.8426    0.0000 C   0  0  0  0  0  0  0  0  0  0  0  0
    2.1500   -5.4301    0.0000 C   0  0  0  0  0  0  0  0  0  0  0  0
    2.8645   -5.0176    0.0000 C   0  0  0  0  0  0  0  0  0  0  0  0
    3.5790   -5.4301    0.0000 O   0  0  0  0  0  0  0  0  0  0  0  0
    4.2934   -5.0176    0.0000 S   0  0  0  0  0  0  0  0  0  0  0  0
    4.2934   -4.1926    0.0000 O   0  0  0  0  0  0  0  0  0  0  0  0
    5.0079   -5.4301    0.0000 O   0  0  0  0  0  0  0  0  0  0  0  0
    5.7224   -5.0176    0.0000 C   0  0  0  0  0  0  0  0  0  0  0  0
    5.7224   -4.1926    0.0000 C   0  0  0  0  0  0  0  0  0  0  0  0
    6.4368   -3.7801    0.0000 C   0  0  0  0  0  0  0  0  0  0  0  0
    7.1513   -4.1926    0.0000 C   0  0  0  0  0  0  0  0  0  0  0  0
    7.1513   -5.0176    0.0000 C   0  0  0  0  0  0  0  0  0  0  0  0
    6.4368   -5.4301    0.0000 C   0  0  0  0  0  0  0  0  0  0  0  0
    6.4368   -6.2551    0.0000 O   0  0  0  0  0  0  0  0  0  0  0  0
    7.1513   -6.6676    0.0000 C   0  0  0  0  0  0  0  0  0  0  0  0
    7.8658   -6.2551    0.0000 C   0  0  0  0  0  0  0  0  0  0  0  0
    8.5803   -6.6676    0.0000 C   0  0  0  0  0  0  0  0  0  0  0  0
    8.5803   -7.4926    0.0000 C   0  0  0  0  0  0  0  0  0  0  0  0
    9.2947   -7.9051    0.0000 C   0  0  0  0  0  0  0  0  0  0  0  0
   10.0092   -8.3176    0.0000 C   0  0  0  0  0  0  0  0  0  0  0  0
    8.8822   -8.6196    0.0000 C   0  0  0  0  0  0  0  0  0  0  0  0
    9.7072   -7.1906    0.0000 C   0  0  0  0  0  0  0  0  0  0  0  0
    7.8658   -7.9051    0.0000 C   0  0  0  0  0  0  0  0  0  0  0  0
    7.1513   -7.4926    0.0000 C   0  0  0  0  0  0  0  0  0  0  0  0
    0.7211   -6.2551    0.0000 H   0  0  0  0  0  0  0  0  0  0  0  0
    3.2347   -4.2804    0.0000 H   0  0  0  0  0  0  0  0  0  0  0  0
    2.4942   -4.2804    0.0000 H   0  0  0  0  0  0  0  0  0  0  0  0
    5.7224   -5.8426    0.0000 H   0  0  0  0  0  0  0  0  0  0  0  0
    5.2690   -3.5033    0.0000 H   0  0  0  0  0  0  0  0  0  0  0  0
    4.8988   -4.1446    0.0000 H   0  0  0  0  0  0  0  0  0  0  0  0
    6.8071   -3.0429    0.0000 H   0  0  0  0  0  0  0  0  0  0  0  0
    6.0666   -3.0429    0.0000 H   0  0  0  0  0  0  0  0  0  0  0  0
    7.9749   -4.1446    0.0000 H   0  0  0  0  0  0  0  0  0  0  0  0
    7.6047   -3.5033    0.0000 H   0  0  0  0  0  0  0  0  0  0  0  0
    7.6047   -5.7069    0.0000 H   0  0  0  0  0  0  0  0  0  0  0  0
    7.9749   -5.0656    0.0000 H   0  0  0  0  0  0  0  0  0  0  0  0
    6.4368   -4.6051    0.0000 H   0  0  0  0  0  0  0  0  0  0  0  0
    8.4717   -5.6953    0.0000 H   0  0  0  0  0  0  0  0  0  0  0  0
    9.2947   -6.2551    0.0000 H   0  0  0  0  0  0  0  0  0  0  0  0
    9.5967   -9.0321    0.0000 H   0  0  0  0  0  0  0  0  0  0  0  0
   10.7237   -8.7301    0.0000 H   0  0  0  0  0  0  0  0  0  0  0  0
   10.4217   -7.6031    0.0000 H   0  0  0  0  0  0  0  0  0  0  0  0
    8.3800   -7.9651    0.0000 H   0  0  0  0  0  0  0  0  0  0  0  0
    8.0853   -8.8331    0.0000 H   0  0  0  0  0  0  0  0  0  0  0  0
    8.7745   -9.4375    0.0000 H   0  0  0  0  0  0  0  0  0  0  0  0
   10.3617   -6.6884    0.0000 H   0  0  0  0  0  0  0  0  0  0  0  0
    9.4937   -6.3937    0.0000 H   0  0  0  0  0  0  0  0  0  0  0  0
    8.8893   -7.0830    0.0000 H   0  0  0  0  0  0  0  0  0  0  0  0
    7.2039   -8.3976    0.0000 H   0  0  0  0  0  0  0  0  0  0  0  0
    6.3267   -7.5166    0.0000 H   0  0  0  0  0  0  0  0  0  0  0  0
  1  2  3  0  0  0  0
  2  3  1  0  0  0  0
  3  4  1  0  0  0  0
  4  5  1  0  0  0  0
  5  6  2  0  0  0  0
  5  7  1  0  0  0  0
  7  8  1  0  0  0  0
  8  9  1  0  0  0  0
  9 10  1  0  0  0  0
 10 11  1  0  0  0  0
 11 12  1  0  0  0  0
 12 13  1  0  0  0  0
  8 13  1  0  0  0  0
 13 14  1  0  0  0  0
 14 15  1  0  0  0  0
 15 16  4  0  0  0  0
 16 17  4  0  0  0  0
 17 18  4  0  0  0  0
 18 19  1  0  0  0  0
 19 20  1  0  0  0  0
 19 21  1  0  0  0  0
 19 22  1  0  0  0  0
 18 23  4  0  0  0  0
 23 24  4  0  0  0  0
 15 24  4  0  0  0  0
  1 25  1  0  0  0  0
  3 26  1  0  0  0  0
  3 27  1  0  0  0  0
  8 28  1  0  0  0  0
  9 29  1  0  0  0  0
  9 30  1  0  0  0  0
 10 31  1  0  0  0  0
 10 32  1  0  0  0  0
 11 33  1  0  0  0  0
 11 34  1  0  0  0  0
 12 35  1  0  0  0  0
 12 36  1  0  0  0  0
 13 37  1  0  0  0  0
 16 38  1  0  0  0  0
 17 39  1  0  0  0  0
 20 40  1  0  0  0  0
 20 41  1  0  0  0  0
 20 42  1  0  0  0  0
 21 43  1  0  0  0  0
 21 44  1  0  0  0  0
 21 45  1  0  0  0  0
 22 46  1  0  0  0  0
 22 47  1  0  0  0  0
 22 48  1  0  0  0  0
 23 49  1  0  0  0  0
 24 50  1  0  0  0  0
M  END
> <id>
1331

> <casrn>
2312-35-8

> <smiles (First)>


> <Molecular weight>
350.47235107421875

> <name>
2-(4-tert-butylphenoxy)cyclohexyl prop-2-yn-1-yl sulfite

> <Outcome>
1

> <Molecule (RDKit Mol) (InChI Code)>
InChI=1S/C19H26O4S/c1-5-14-21-24(20)23-18-9-7-6-8-17(18)22-16-12-10-15(11-13-16)19(2,3)4/h1,10-13,17-18H,6-9,14H2,2-4H3

> <reference>
ECHA

> <molecule_form>
A

$$$$

  Mrv1812 01171911372D          

 65 64  0  0  0  0            999 V2000
   10.4230    6.8433    0.0000 C   0  0  0  0  0  0  0  0  0  0  0  0
   11.1375    6.4308    0.0000 C   0  0  0  0  0  0  0  0  0  0  0  0
   11.8520    6.8433    0.0000 C   0  0  0  0  0  0  0  0  0  0  0  0
   12.5664    6.4308    0.0000 C   0  0  0  0  0  0  0  0  0  0  0  0
   13.2809    6.8433    0.0000 C   0  0  0  0  0  0  0  0  0  0  0  0
   13.9954    6.4308    0.0000 C   0  0  0  0  0  0  0  0  0  0  0  0
   14.7099    6.8433    0.0000 C   0  0  0  0  0  0  0  0  0  0  0  0
   15.4243    6.4308    0.0000 C   0  0  0  0  0  0  0  0  0  0  0  0
   16.1388    6.8433    0.0000 C   0  0  0  0  0  0  0  0  0  0  0  0
   16.8533    6.4308    0.0000 C   0  0  0  0  0  0  0  0  0  0  0  0
   17.5677    6.8433    0.0000 C   0  0  0  0  0  0  0  0  0  0  0  0
   18.2822    6.4308    0.0000 C   0  0  0  0  0  0  0  0  0  0  0  0
   18.9967    6.8433    0.0000 C   0  0  0  0  0  0  0  0  0  0  0  0
   19.7112    6.4308    0.0000 C   0  0  0  0  0  0  0  0  0  0  0  0
   20.4256    6.8433    0.0000 C   0  0  0  0  0  0  0  0  0  0  0  0
   21.1401    6.4308    0.0000 C   0  0  0  0  0  0  0  0  0  0  0  0
   21.8546    6.8433    0.0000 C   0  0  0  0  0  0  0  0  0  0  0  0
   22.5690    6.4308    0.0000 C   0  0  0  0  0  0  0  0  0  0  0  0
   23.2835    6.8433    0.0000 C   0  0  0  0  0  0  0  0  0  0  0  0
   23.9980    6.4308    0.0000 C   0  0  0  0  0  0  0  0  0  0  0  0
   24.7124    6.8433    0.0000 C   0  0  0  0  0  0  0  0  0  0  0  0
   10.8355    7.5577    0.0000 H   0  0  0  0  0  0  0  0  0  0  0  0
    9.7086    7.2558    0.0000 H   0  0  0  0  0  0  0  0  0  0  0  0
   10.0105    6.1288    0.0000 H   0  0  0  0  0  0  0  0  0  0  0  0
   10.7672    5.6935    0.0000 H   0  0  0  0  0  0  0  0  0  0  0  0
   11.5078    5.6935    0.0000 H   0  0  0  0  0  0  0  0  0  0  0  0
   12.2222    7.5805    0.0000 H   0  0  0  0  0  0  0  0  0  0  0  0
   11.4817    7.5805    0.0000 H   0  0  0  0  0  0  0  0  0  0  0  0
   12.1962    5.6935    0.0000 H   0  0  0  0  0  0  0  0  0  0  0  0
   12.9367    5.6935    0.0000 H   0  0  0  0  0  0  0  0  0  0  0  0
   13.6512    7.5805    0.0000 H   0  0  0  0  0  0  0  0  0  0  0  0
   12.9107    7.5805    0.0000 H   0  0  0  0  0  0  0  0  0  0  0  0
   13.6251    5.6935    0.0000 H   0  0  0  0  0  0  0  0  0  0  0  0
   14.3656    5.6935    0.0000 H   0  0  0  0  0  0  0  0  0  0  0  0
   15.0801    7.5805    0.0000 H   0  0  0  0  0  0  0  0  0  0  0  0
   14.3396    7.5805    0.0000 H   0  0  0  0  0  0  0  0  0  0  0  0
   15.0541    5.6935    0.0000 H   0  0  0  0  0  0  0  0  0  0  0  0
   15.7946    5.6935    0.0000 H   0  0  0  0  0  0  0  0  0  0  0  0
   16.5091    7.5805    0.0000 H   0  0  0  0  0  0  0  0  0  0  0  0
   15.7685    7.5805    0.0000 H   0  0  0  0  0  0  0  0  0  0  0  0
   16.4830    5.6935    0.0000 H   0  0  0  0  0  0  0  0  0  0  0  0
   17.2235    5.6935    0.0000 H   0  0  0  0  0  0  0  0  0  0  0  0
   17.9380    7.5805    0.0000 H   0  0  0  0  0  0  0  0  0  0  0  0
   17.1975    7.5805    0.0000 H   0  0  0  0  0  0  0  0  0  0  0  0
   17.9119    5.6935    0.0000 H   0  0  0  0  0  0  0  0  0  0  0  0
   18.6525    5.6935    0.0000 H   0  0  0  0  0  0  0  0  0  0  0  0
   19.3669    7.5805    0.0000 H   0  0  0  0  0  0  0  0  0  0  0  0
   18.6264    7.5805    0.0000 H   0  0  0  0  0  0  0  0  0  0  0  0
   19.3409    5.6935    0.0000 H   0  0  0  0  0  0  0  0  0  0  0  0
   20.0814    5.6935    0.0000 H   0  0  0  0  0  0  0  0  0  0  0  0
   20.7959    7.5805    0.0000 H   0  0  0  0  0  0  0  0  0  0  0  0
   20.0554    7.5805    0.0000 H   0  0  0  0  0  0  0  0  0  0  0  0
   20.7698    5.6935    0.0000 H   0  0  0  0  0  0  0  0  0  0  0  0
   21.5104    5.6935    0.0000 H   0  0  0  0  0  0  0  0  0  0  0  0
   22.2248    7.5805    0.0000 H   0  0  0  0  0  0  0  0  0  0  0  0
   21.4843    7.5805    0.0000 H   0  0  0  0  0  0  0  0  0  0  0  0
   22.1988    5.6935    0.0000 H   0  0  0  0  0  0  0  0  0  0  0  0
   22.9393    5.6935    0.0000 H   0  0  0  0  0  0  0  0  0  0  0  0
   23.6538    7.5805    0.0000 H   0  0  0  0  0  0  0  0  0  0  0  0
   22.9132    7.5805    0.0000 H   0  0  0  0  0  0  0  0  0  0  0  0
   23.6277    5.6935    0.0000 H   0  0  0  0  0  0  0  0  0  0  0  0
   24.3682    5.6935    0.0000 H   0  0  0  0  0  0  0  0  0  0  0  0
   25.1249    6.1288    0.0000 H   0  0  0  0  0  0  0  0  0  0  0  0
   25.4269    7.2558    0.0000 H   0  0  0  0  0  0  0  0  0  0  0  0
   24.2999    7.5577    0.0000 H   0  0  0  0  0  0  0  0  0  0  0  0
  1  2  1  0  0  0  0
  2  3  1  0  0  0  0
  3  4  1  0  0  0  0
  4  5  1  0  0  0  0
  5  6  1  0  0  0  0
  6  7  1  0  0  0  0
  7  8  1  0  0  0  0
  8  9  1  0  0  0  0
  9 10  1  0  0  0  0
 10 11  1  0  0  0  0
 11 12  1  0  0  0  0
 12 13  1  0  0  0  0
 13 14  1  0  0  0  0
 14 15  1  0  0  0  0
 15 16  1  0  0  0  0
 16 17  1  0  0  0  0
 17 18  1  0  0  0  0
 18 19  1  0  0  0  0
 19 20  1  0  0  0  0
 20 21  1  0  0  0  0
  1 22  1  0  0  0  0
  1 23  1  0  0  0  0
  1 24  1  0  0  0  0
  2 25  1  0  0  0  0
  2 26  1  0  0  0  0
  3 27  1  0  0  0  0
  3 28  1  0  0  0  0
  4 29  1  0  0  0  0
  4 30  1  0  0  0  0
  5 31  1  0  0  0  0
  5 32  1  0  0  0  0
  6 33  1  0  0  0  0
  6 34  1  0  0  0  0
  7 35  1  0  0  0  0
  7 36  1  0  0  0  0
  8 37  1  0  0  0  0
  8 38  1  0  0  0  0
  9 39  1  0  0  0  0
  9 40  1  0  0  0  0
 10 41  1  0  0  0  0
 10 42  1  0  0  0  0
 11 43  1  0  0  0  0
 11 44  1  0  0  0  0
 12 45  1  0  0  0  0
 12 46  1  0  0  0  0
 13 47  1  0  0  0  0
 13 48  1  0  0  0  0
 14 49  1  0  0  0  0
 14 50  1  0  0  0  0
 15 51  1  0  0  0  0
 15 52  1  0  0  0  0
 16 53  1  0  0  0  0
 16 54  1  0  0  0  0
 17 55  1  0  0  0  0
 17 56  1  0  0  0  0
 18 57  1  0  0  0  0
 18 58  1  0  0  0  0
 19 59  1  0  0  0  0
 19 60  1  0  0  0  0
 20 61  1  0  0  0  0
 20 62  1  0  0  0  0
 21 63  1  0  0  0  0
 21 64  1  0  0  0  0
 21 65  1  0  0  0  0
M  END
> <id>
2081; 2082; 2080

> <casrn>
64741-76-0

> <smiles (First)>


> <Molecular weight>
296.5740661621094

> <name>
Distillates (petroleum), heavy hydrocracked

> <Outcome>
0

> <Molecule (RDKit Mol) (InChI Code)>
InChI=1S/C21H44/c1-3-5-7-9-11-13-15-17-19-21-20-18-16-14-12-10-8-6-4-2/h3-21H2,1-2H3

> <reference>
ECHA

> <molecule_form>
A

$$$$

  Mrv1812 01171911372D          

 33 32  0  0  0  0            999 V2000
    2.7901    1.8251    0.0000 C   0  0  0  0  0  0  0  0  0  0  0  0
    2.0756    1.4126    0.0000 C   0  0  0  0  0  0  0  0  0  0  0  0
    1.3612    1.8251    0.0000 O   0  0  0  0  0  0  0  0  0  0  0  0
    0.6467    1.4126    0.0000 Si  0  0  0  0  0  0  0  0  0  0  0  0
   -0.0678    1.0001    0.0000 O   0  0  0  0  0  0  0  0  0  0  0  0
   -0.7822    1.4126    0.0000 C   0  0  0  0  0  0  0  0  0  0  0  0
   -1.4967    1.0001    0.0000 C   0  0  0  0  0  0  0  0  0  0  0  0
    0.2342    2.1271    0.0000 O   0  0  0  0  0  0  0  0  0  0  0  0
   -0.5908    2.1271    0.0000 C   0  0  0  0  0  0  0  0  0  0  0  0
   -1.0033    2.8416    0.0000 C   0  0  0  0  0  0  0  0  0  0  0  0
    1.0592    0.6982    0.0000 O   0  0  0  0  0  0  0  0  0  0  0  0
    0.6467   -0.0163    0.0000 C   0  0  0  0  0  0  0  0  0  0  0  0
   -0.1783   -0.0163    0.0000 C   0  0  0  0  0  0  0  0  0  0  0  0
    3.2026    1.1107    0.0000 H   0  0  0  0  0  0  0  0  0  0  0  0
    3.5046    2.2376    0.0000 H   0  0  0  0  0  0  0  0  0  0  0  0
    2.3776    2.5396    0.0000 H   0  0  0  0  0  0  0  0  0  0  0  0
    1.7054    0.6754    0.0000 H   0  0  0  0  0  0  0  0  0  0  0  0
    2.4459    0.6754    0.0000 H   0  0  0  0  0  0  0  0  0  0  0  0
   -1.4368    1.9149    0.0000 H   0  0  0  0  0  0  0  0  0  0  0  0
   -0.0200    1.7283    0.0000 H   0  0  0  0  0  0  0  0  0  0  0  0
   -2.2822    1.2525    0.0000 H   0  0  0  0  0  0  0  0  0  0  0  0
   -1.9324    0.2995    0.0000 H   0  0  0  0  0  0  0  0  0  0  0  0
   -0.9230    0.4073    0.0000 H   0  0  0  0  0  0  0  0  0  0  0  0
    0.0412    2.6574    0.0000 H   0  0  0  0  0  0  0  0  0  0  0  0
   -0.4475    2.9396    0.0000 H   0  0  0  0  0  0  0  0  0  0  0  0
   -0.8956    3.6595    0.0000 H   0  0  0  0  0  0  0  0  0  0  0  0
   -1.7510    3.1902    0.0000 H   0  0  0  0  0  0  0  0  0  0  0  0
   -1.5607    2.2333    0.0000 H   0  0  0  0  0  0  0  0  0  0  0  0
    0.6947   -0.8399    0.0000 H   0  0  0  0  0  0  0  0  0  0  0  0
    1.3360   -0.4697    0.0000 H   0  0  0  0  0  0  0  0  0  0  0  0
   -0.6875   -0.6654    0.0000 H   0  0  0  0  0  0  0  0  0  0  0  0
   -0.0567   -0.8323    0.0000 H   0  0  0  0  0  0  0  0  0  0  0  0
    0.0327    0.7813    0.0000 H   0  0  0  0  0  0  0  0  0  0  0  0
  1  2  1  0  0  0  0
  2  3  1  0  0  0  0
  3  4  1  0  0  0  0
  4  5  1  0  0  0  0
  5  6  1  0  0  0  0
  6  7  1  0  0  0  0
  4  8  1  0  0  0  0
  8  9  1  0  0  0  0
  9 10  1  0  0  0  0
  4 11  1  0  0  0  0
 11 12  1  0  0  0  0
 12 13  1  0  0  0  0
  1 14  1  0  0  0  0
  1 15  1  0  0  0  0
  1 16  1  0  0  0  0
  2 17  1  0  0  0  0
  2 18  1  0  0  0  0
  6 19  1  0  0  0  0
  6 20  1  0  0  0  0
  7 21  1  0  0  0  0
  7 22  1  0  0  0  0
  7 23  1  0  0  0  0
  9 24  1  0  0  0  0
  9 25  1  0  0  0  0
 10 26  1  0  0  0  0
 10 27  1  0  0  0  0
 10 28  1  0  0  0  0
 12 29  1  0  0  0  0
 12 30  1  0  0  0  0
 13 31  1  0  0  0  0
 13 32  1  0  0  0  0
 13 33  1  0  0  0  0
M  END
> <id>
3971; 3972

> <casrn>
78-10-4

> <smiles (First)>


> <Molecular weight>
208.32749938964844

> <name>
tetraethyl silicate

> <Outcome>
0

> <Molecule (RDKit Mol) (InChI Code)>
InChI=1S/C8H20O4Si/c1-5-9-13(10-6-2,11-7-3)12-8-4/h5-8H2,1-4H3

> <reference>
ECHA

> <molecule_form>
A

$$$$

  Mrv1812 01171911372D          

 19 19  0  0  0  0            999 V2000
    2.8040   -0.0846    0.0000 O   0  0  0  0  0  0  0  0  0  0  0  0
    1.9997    0.0989    0.0000 C   0  0  0  0  0  0  0  0  0  0  0  0
    1.4853   -0.5461    0.0000 C   0  0  0  0  0  0  0  0  0  0  0  0
    0.6603   -0.5461    0.0000 C   0  0  0  0  0  0  0  0  0  0  0  0
    0.1459    0.0989    0.0000 C   0  0  0  0  0  0  0  0  0  0  0  0
    0.3295    0.9033    0.0000 C   0  0  0  0  0  0  0  0  0  0  0  0
    1.0728    1.2612    0.0000 C   0  0  0  0  0  0  0  0  0  0  0  0
    1.8161    0.9033    0.0000 N   0  0  0  0  0  0  0  0  0  0  0  0
    1.4853   -1.3711    0.0000 H   0  0  0  0  0  0  0  0  0  0  0  0
    2.1303   -1.0604    0.0000 H   0  0  0  0  0  0  0  0  0  0  0  0
    0.0153   -1.0604    0.0000 H   0  0  0  0  0  0  0  0  0  0  0  0
    0.6603   -1.3711    0.0000 H   0  0  0  0  0  0  0  0  0  0  0  0
   -0.6584    0.2825    0.0000 H   0  0  0  0  0  0  0  0  0  0  0  0
   -0.4991   -0.4154    0.0000 H   0  0  0  0  0  0  0  0  0  0  0  0
   -0.0284    1.6466    0.0000 H   0  0  0  0  0  0  0  0  0  0  0  0
   -0.4748    1.0868    0.0000 H   0  0  0  0  0  0  0  0  0  0  0  0
    1.4308    2.0045    0.0000 H   0  0  0  0  0  0  0  0  0  0  0  0
    0.7149    2.0045    0.0000 H   0  0  0  0  0  0  0  0  0  0  0  0
    2.4611    1.4176    0.0000 H   0  0  0  0  0  0  0  0  0  0  0  0
  1  2  2  0  0  0  0
  2  3  1  0  0  0  0
  3  4  1  0  0  0  0
  4  5  1  0  0  0  0
  5  6  1  0  0  0  0
  6  7  1  0  0  0  0
  7  8  1  0  0  0  0
  2  8  1  0  0  0  0
  3  9  1  0  0  0  0
  3 10  1  0  0  0  0
  4 11  1  0  0  0  0
  4 12  1  0  0  0  0
  5 13  1  0  0  0  0
  5 14  1  0  0  0  0
  6 15  1  0  0  0  0
  6 16  1  0  0  0  0
  7 17  1  0  0  0  0
  7 18  1  0  0  0  0
  8 19  1  0  0  0  0
M  END
> <id>
2604

> <casrn>
105-60-2

> <smiles (First)>


> <Molecular weight>
113.15763854980469

> <name>
azepan-2-one

> <Outcome>
0

> <Molecule (RDKit Mol) (InChI Code)>
InChI=1S/C6H11NO/c8-6-4-2-1-3-5-7-6/h1-5H2,(H,7,8)

> <reference>
ECHA

> <molecule_form>
A

$$$$

  Mrv1812 01171911372D          

 44 46  0  0  0  0            999 V2000
   -2.0775    0.1057    0.0000 O   0  0  0  0  0  0  0  0  0  0  0  0
   -1.3630   -0.3068    0.0000 C   0  0  0  0  0  0  0  0  0  0  0  0
   -0.6485   -0.7193    0.0000 N   0  0  0  0  0  0  0  0  0  0  0  0
   -0.6485   -1.5443    0.0000 C   0  0  0  0  0  0  0  0  0  0  0  0
    0.0659   -1.9568    0.0000 C   0  0  0  0  0  0  0  0  0  0  0  0
    0.0659   -2.7818    0.0000 C   0  0  0  0  0  0  0  0  0  0  0  0
   -0.6485   -3.1943    0.0000 C   0  0  0  0  0  0  0  0  0  0  0  0
   -0.6485   -4.0193    0.0000 O   0  0  0  0  0  0  0  0  0  0  0  0
    0.0659   -4.4318    0.0000 P   0  0  0  0  0  0  0  0  0  0  0  0
   -0.3466   -5.1463    0.0000 S   0  0  0  0  0  0  0  0  0  0  0  0
    0.7804   -4.8443    0.0000 O   0  0  0  0  0  0  0  0  0  0  0  0
    0.7804   -5.6693    0.0000 C   0  0  0  0  0  0  0  0  0  0  0  0
    1.4949   -6.0818    0.0000 C   0  0  0  0  0  0  0  0  0  0  0  0
    1.4949   -6.9068    0.0000 C   0  0  0  0  0  0  0  0  0  0  0  0
    0.7804   -7.3193    0.0000 C   0  0  0  0  0  0  0  0  0  0  0  0
    0.7804   -8.1443    0.0000 N   0  0  0  0  0  0  0  0  0  0  0  0
    1.4949   -8.5568    0.0000 C   0  0  0  0  0  0  0  0  0  0  0  0
    2.2093   -8.9693    0.0000 O   0  0  0  0  0  0  0  0  0  0  0  0
    0.0659   -6.9068    0.0000 C   0  0  0  0  0  0  0  0  0  0  0  0
    0.0659   -6.0818    0.0000 C   0  0  0  0  0  0  0  0  0  0  0  0
    0.4784   -3.7173    0.0000 O   0  0  0  0  0  0  0  0  0  0  0  0
    1.3034   -3.7173    0.0000 C   0  0  0  0  0  0  0  0  0  0  0  0
    1.7159   -3.0029    0.0000 C   0  0  0  0  0  0  0  0  0  0  0  0
    2.5409   -3.0029    0.0000 C   0  0  0  0  0  0  0  0  0  0  0  0
    2.9534   -3.7173    0.0000 C   0  0  0  0  0  0  0  0  0  0  0  0
    3.7784   -3.7173    0.0000 N   0  0  0  0  0  0  0  0  0  0  0  0
    4.1909   -4.4318    0.0000 C   0  0  0  0  0  0  0  0  0  0  0  0
    4.6034   -5.1463    0.0000 O   0  0  0  0  0  0  0  0  0  0  0  0
    2.5409   -4.4318    0.0000 C   0  0  0  0  0  0  0  0  0  0  0  0
    1.7159   -4.4318    0.0000 C   0  0  0  0  0  0  0  0  0  0  0  0
   -1.3630   -2.7818    0.0000 C   0  0  0  0  0  0  0  0  0  0  0  0
   -1.3630   -1.9568    0.0000 C   0  0  0  0  0  0  0  0  0  0  0  0
    0.7804   -1.5443    0.0000 H   0  0  0  0  0  0  0  0  0  0  0  0
    0.7804   -3.1943    0.0000 H   0  0  0  0  0  0  0  0  0  0  0  0
    2.2093   -5.6693    0.0000 H   0  0  0  0  0  0  0  0  0  0  0  0
    2.2093   -7.3193    0.0000 H   0  0  0  0  0  0  0  0  0  0  0  0
   -0.6485   -7.3193    0.0000 H   0  0  0  0  0  0  0  0  0  0  0  0
   -0.6485   -5.6693    0.0000 H   0  0  0  0  0  0  0  0  0  0  0  0
    1.6328   -2.1821    0.0000 H   0  0  0  0  0  0  0  0  0  0  0  0
    2.9534   -2.2884    0.0000 H   0  0  0  0  0  0  0  0  0  0  0  0
    2.9534   -5.1463    0.0000 H   0  0  0  0  0  0  0  0  0  0  0  0
    1.3034   -5.1463    0.0000 H   0  0  0  0  0  0  0  0  0  0  0  0
   -2.0775   -3.1943    0.0000 H   0  0  0  0  0  0  0  0  0  0  0  0
   -2.0775   -1.5443    0.0000 H   0  0  0  0  0  0  0  0  0  0  0  0
  1  2  2  0  0  0  0
  2  3  2  0  0  0  0
  3  4  1  0  0  0  0
  4  5  4  0  0  0  0
  5  6  4  0  0  0  0
  6  7  4  0  0  0  0
  7  8  1  0  0  0  0
  8  9  1  0  0  0  0
  9 10  2  0  0  0  0
  9 11  1  0  0  0  0
 11 12  1  0  0  0  0
 12 13  4  0  0  0  0
 13 14  4  0  0  0  0
 14 15  4  0  0  0  0
 15 16  1  0  0  0  0
 16 17  2  0  0  0  0
 17 18  2  0  0  0  0
 15 19  4  0  0  0  0
 19 20  4  0  0  0  0
 12 20  4  0  0  0  0
  9 21  1  0  0  0  0
 21 22  1  0  0  0  0
 22 23  4  0  0  0  0
 23 24  4  0  0  0  0
 24 25  4  0  0  0  0
 25 26  1  0  0  0  0
 26 27  2  0  0  0  0
 27 28  2  0  0  0  0
 25 29  4  0  0  0  0
 29 30  4  0  0  0  0
 22 30  4  0  0  0  0
  7 31  4  0  0  0  0
 31 32  4  0  0  0  0
  4 32  4  0  0  0  0
  5 33  1  0  0  0  0
  6 34  1  0  0  0  0
 13 35  1  0  0  0  0
 14 36  1  0  0  0  0
 19 37  1  0  0  0  0
 20 38  1  0  0  0  0
 23 39  1  0  0  0  0
 24 40  1  0  0  0  0
 29 41  1  0  0  0  0
 30 42  1  0  0  0  0
 31 43  1  0  0  0  0
 32 44  1  0  0  0  0
M  END
> <id>
2657

> <casrn>
4151-51-3

> <smiles (First)>


> <Molecular weight>
465.375244140625

> <name>
bis(4-isocyanatophenyl) [(4-isocyanatophenyl)sulfanyl]phosphonate

> <Outcome>
0

> <Molecule (RDKit Mol) (InChI Code)>
InChI=1S/C21H12N3O6PS/c25-13-22-16-1-7-19(8-2-16)28-31(32,29-20-9-3-17(4-10-20)23-14-26)30-21-11-5-18(6-12-21)24-15-27/h1-12H

> <reference>
ECHA

> <molecule_form>
A

$$$$

  Mrv1812 01171911372D          

 31 31  0  0  0  0            999 V2000
    0.7299    2.2215    0.0000 C   0  0  0  0  0  0  0  0  0  0  0  0
    0.7299    1.3965    0.0000 C   0  0  0  0  0  0  0  0  0  0  0  0
    1.4444    0.9840    0.0000 C   0  0  0  0  0  0  0  0  0  0  0  0
    1.4444    0.1590    0.0000 C   0  0  0  0  0  0  0  0  0  0  0  0
    0.7299   -0.2535    0.0000 C   0  0  0  0  0  0  0  0  0  0  0  0
    0.7299   -1.0785    0.0000 C   0  0  0  0  0  0  0  0  0  0  0  0
    1.4444   -1.4910    0.0000 C   0  0  0  0  0  0  0  0  0  0  0  0
    0.0154   -1.4910    0.0000 C   0  0  0  0  0  0  0  0  0  0  0  0
    0.0154    0.1590    0.0000 C   0  0  0  0  0  0  0  0  0  0  0  0
   -0.6990   -0.2535    0.0000 O   0  0  0  0  0  0  0  0  0  0  0  0
    0.0154    0.9840    0.0000 C   0  0  0  0  0  0  0  0  0  0  0  0
    1.5549    2.2215    0.0000 H   0  0  0  0  0  0  0  0  0  0  0  0
    0.7299    3.0465    0.0000 H   0  0  0  0  0  0  0  0  0  0  0  0
   -0.0951    2.2215    0.0000 H   0  0  0  0  0  0  0  0  0  0  0  0
    0.0154    1.8090    0.0000 H   0  0  0  0  0  0  0  0  0  0  0  0
    2.2680    1.0320    0.0000 H   0  0  0  0  0  0  0  0  0  0  0  0
    1.8977    1.6733    0.0000 H   0  0  0  0  0  0  0  0  0  0  0  0
    1.8977   -0.5302    0.0000 H   0  0  0  0  0  0  0  0  0  0  0  0
    2.2680    0.1111    0.0000 H   0  0  0  0  0  0  0  0  0  0  0  0
    0.0154   -0.6660    0.0000 H   0  0  0  0  0  0  0  0  0  0  0  0
    1.4444   -0.6660    0.0000 H   0  0  0  0  0  0  0  0  0  0  0  0
    0.8610   -2.0743    0.0000 H   0  0  0  0  0  0  0  0  0  0  0  0
    1.8569   -2.2054    0.0000 H   0  0  0  0  0  0  0  0  0  0  0  0
    2.2413   -1.2774    0.0000 H   0  0  0  0  0  0  0  0  0  0  0  0
   -0.7814   -1.2774    0.0000 H   0  0  0  0  0  0  0  0  0  0  0  0
   -0.3971   -2.2054    0.0000 H   0  0  0  0  0  0  0  0  0  0  0  0
    0.5988   -2.0743    0.0000 H   0  0  0  0  0  0  0  0  0  0  0  0
   -0.6990    0.5715    0.0000 H   0  0  0  0  0  0  0  0  0  0  0  0
   -1.4135   -0.6660    0.0000 H   0  0  0  0  0  0  0  0  0  0  0  0
   -0.6990    1.3965    0.0000 H   0  0  0  0  0  0  0  0  0  0  0  0
    0.7299    0.5715    0.0000 H   0  0  0  0  0  0  0  0  0  0  0  0
  1  2  1  0  0  0  0
  2  3  1  0  0  0  0
  3  4  1  0  0  0  0
  4  5  1  0  0  0  0
  5  6  1  0  0  0  0
  6  7  1  0  0  0  0
  6  8  1  0  0  0  0
  5  9  1  0  0  0  0
  9 10  1  0  0  0  0
  9 11  1  0  0  0  0
  2 11  1  0  0  0  0
  1 12  1  0  0  0  0
  1 13  1  0  0  0  0
  1 14  1  0  0  0  0
  2 15  1  0  0  0  0
  3 16  1  0  0  0  0
  3 17  1  0  0  0  0
  4 18  1  0  0  0  0
  4 19  1  0  0  0  0
  5 20  1  0  0  0  0
  6 21  1  0  0  0  0
  7 22  1  0  0  0  0
  7 23  1  0  0  0  0
  7 24  1  0  0  0  0
  8 25  1  0  0  0  0
  8 26  1  0  0  0  0
  8 27  1  0  0  0  0
  9 28  1  0  0  0  0
 10 29  1  0  0  0  0
 11 30  1  0  0  0  0
 11 31  1  0  0  0  0
M  END
> <id>
231; 1871; 1872

> <casrn>
3623-51-6

> <smiles (First)>


> <Molecular weight>
156.26519775390625

> <name>
(??)-neomenthol

> <Outcome>
0

> <Molecule (RDKit Mol) (InChI Code)>
InChI=1S/C10H20O/c1-7(2)9-5-4-8(3)6-10(9)11/h7-11H,4-6H2,1-3H3

> <reference>
ECHA

> <molecule_form>
A

$$$$

  Mrv1812 01171911372D          

 26 26  0  0  0  0            999 V2000
    1.3773    2.2633    0.0000 C   0  0  0  0  0  0  0  0  0  0  0  0
    1.3773    1.4383    0.0000 C   0  0  0  0  0  0  0  0  0  0  0  0
    2.0918    1.0258    0.0000 C   0  0  0  0  0  0  0  0  0  0  0  0
    2.0918    0.2008    0.0000 C   0  0  0  0  0  0  0  0  0  0  0  0
    2.8062   -0.2117    0.0000 O   0  0  0  0  0  0  0  0  0  0  0  0
    1.3773   -0.2117    0.0000 C   0  0  0  0  0  0  0  0  0  0  0  0
    0.6628    0.2008    0.0000 C   0  0  0  0  0  0  0  0  0  0  0  0
    0.3806   -0.5745    0.0000 C   0  0  0  0  0  0  0  0  0  0  0  0
   -0.1497    0.3440    0.0000 C   0  0  0  0  0  0  0  0  0  0  0  0
    0.6628    1.0258    0.0000 C   0  0  0  0  0  0  0  0  0  0  0  0
    2.2023    2.2633    0.0000 H   0  0  0  0  0  0  0  0  0  0  0  0
    1.3773    3.0883    0.0000 H   0  0  0  0  0  0  0  0  0  0  0  0
    0.5523    2.2633    0.0000 H   0  0  0  0  0  0  0  0  0  0  0  0
    0.6628    1.8508    0.0000 H   0  0  0  0  0  0  0  0  0  0  0  0
    2.9154    1.0737    0.0000 H   0  0  0  0  0  0  0  0  0  0  0  0
    2.5451    1.7150    0.0000 H   0  0  0  0  0  0  0  0  0  0  0  0
    1.0070   -0.9490    0.0000 H   0  0  0  0  0  0  0  0  0  0  0  0
    1.7475   -0.9490    0.0000 H   0  0  0  0  0  0  0  0  0  0  0  0
   -0.2005    0.0111    0.0000 H   0  0  0  0  0  0  0  0  0  0  0  0
   -0.3967   -0.8507    0.0000 H   0  0  0  0  0  0  0  0  0  0  0  0
    0.2993   -1.3955    0.0000 H   0  0  0  0  0  0  0  0  0  0  0  0
    0.2896    1.0424    0.0000 H   0  0  0  0  0  0  0  0  0  0  0  0
   -0.6306    1.0143    0.0000 H   0  0  0  0  0  0  0  0  0  0  0  0
   -0.9519    0.1516    0.0000 H   0  0  0  0  0  0  0  0  0  0  0  0
    1.3773    0.6133    0.0000 H   0  0  0  0  0  0  0  0  0  0  0  0
    0.0926    1.6219    0.0000 H   0  0  0  0  0  0  0  0  0  0  0  0
  1  2  1  0  0  0  0
  2  3  1  0  0  0  0
  3  4  1  0  0  0  0
  4  5  2  0  0  0  0
  4  6  1  0  0  0  0
  6  7  1  0  0  0  0
  7  8  1  0  0  0  0
  7  9  1  0  0  0  0
  7 10  1  0  0  0  0
  2 10  1  0  0  0  0
  1 11  1  0  0  0  0
  1 12  1  0  0  0  0
  1 13  1  0  0  0  0
  2 14  1  0  0  0  0
  3 15  1  0  0  0  0
  3 16  1  0  0  0  0
  6 17  1  0  0  0  0
  6 18  1  0  0  0  0
  8 19  1  0  0  0  0
  8 20  1  0  0  0  0
  8 21  1  0  0  0  0
  9 22  1  0  0  0  0
  9 23  1  0  0  0  0
  9 24  1  0  0  0  0
 10 25  1  0  0  0  0
 10 26  1  0  0  0  0
M  END
> <id>
1718

> <casrn>
873-94-9

> <smiles (First)>


> <Molecular weight>
140.22274780273438

> <name>
3,3,5-trimethylcyclohexanone

> <Outcome>
0

> <Molecule (RDKit Mol) (InChI Code)>
InChI=1S/C9H16O/c1-7-4-8(10)6-9(2,3)5-7/h7H,4-6H2,1-3H3

> <reference>
ECHA

> <molecule_form>
A

$$$$

  Mrv1812 01171911372D          

 33 33  0  0  0  0            999 V2000
   -0.0584   -2.2758    0.0000 C   0  0  0  0  0  0  0  0  0  0  0  0
    0.6561   -2.6883    0.0000 C   0  0  0  0  0  0  0  0  0  0  0  0
    1.3705   -2.2758    0.0000 O   0  0  0  0  0  0  0  0  0  0  0  0
    2.0850   -2.6883    0.0000 C   0  0  0  0  0  0  0  0  0  0  0  0
    2.0850   -3.5133    0.0000 O   0  0  0  0  0  0  0  0  0  0  0  0
    2.7995   -2.2758    0.0000 C   0  0  0  0  0  0  0  0  0  0  0  0
    2.7995   -1.4508    0.0000 C   0  0  0  0  0  0  0  0  0  0  0  0
    3.5140   -2.6883    0.0000 C   0  0  0  0  0  0  0  0  0  0  0  0
    4.2284   -2.2758    0.0000 C   0  0  0  0  0  0  0  0  0  0  0  0
    4.9429   -2.6883    0.0000 C   0  0  0  0  0  0  0  0  0  0  0  0
    4.9429   -3.5133    0.0000 C   0  0  0  0  0  0  0  0  0  0  0  0
    4.2284   -3.9258    0.0000 C   0  0  0  0  0  0  0  0  0  0  0  0
    3.5140   -3.5133    0.0000 C   0  0  0  0  0  0  0  0  0  0  0  0
    0.3541   -1.5614    0.0000 H   0  0  0  0  0  0  0  0  0  0  0  0
   -0.7729   -1.8633    0.0000 H   0  0  0  0  0  0  0  0  0  0  0  0
   -0.4709   -2.9903    0.0000 H   0  0  0  0  0  0  0  0  0  0  0  0
    0.2858   -3.4256    0.0000 H   0  0  0  0  0  0  0  0  0  0  0  0
    1.0263   -3.4256    0.0000 H   0  0  0  0  0  0  0  0  0  0  0  0
    2.0850   -1.8633    0.0000 H   0  0  0  0  0  0  0  0  0  0  0  0
    3.5964   -1.6644    0.0000 H   0  0  0  0  0  0  0  0  0  0  0  0
    3.2120   -0.7364    0.0000 H   0  0  0  0  0  0  0  0  0  0  0  0
    2.2161   -0.8675    0.0000 H   0  0  0  0  0  0  0  0  0  0  0  0
    2.7995   -3.1008    0.0000 H   0  0  0  0  0  0  0  0  0  0  0  0
    4.7252   -1.6172    0.0000 H   0  0  0  0  0  0  0  0  0  0  0  0
    4.2284   -3.1008    0.0000 H   0  0  0  0  0  0  0  0  0  0  0  0
    5.7665   -2.6404    0.0000 H   0  0  0  0  0  0  0  0  0  0  0  0
    5.3962   -1.9991    0.0000 H   0  0  0  0  0  0  0  0  0  0  0  0
    5.3962   -4.2026    0.0000 H   0  0  0  0  0  0  0  0  0  0  0  0
    5.7665   -3.5613    0.0000 H   0  0  0  0  0  0  0  0  0  0  0  0
    3.8582   -4.6631    0.0000 H   0  0  0  0  0  0  0  0  0  0  0  0
    4.5987   -4.6631    0.0000 H   0  0  0  0  0  0  0  0  0  0  0  0
    2.8820   -4.0436    0.0000 H   0  0  0  0  0  0  0  0  0  0  0  0
    3.3707   -4.3258    0.0000 H   0  0  0  0  0  0  0  0  0  0  0  0
  1  2  1  0  0  0  0
  2  3  1  0  0  0  0
  3  4  1  0  0  0  0
  4  5  2  0  0  0  0
  4  6  1  0  0  0  0
  6  7  1  0  0  0  0
  6  8  1  0  0  0  0
  8  9  1  0  0  0  0
  9 10  1  0  0  0  0
 10 11  1  0  0  0  0
 11 12  1  0  0  0  0
 12 13  1  0  0  0  0
  8 13  1  0  0  0  0
  1 14  1  0  0  0  0
  1 15  1  0  0  0  0
  1 16  1  0  0  0  0
  2 17  1  0  0  0  0
  2 18  1  0  0  0  0
  6 19  1  0  0  0  0
  7 20  1  0  0  0  0
  7 21  1  0  0  0  0
  7 22  1  0  0  0  0
  8 23  1  0  0  0  0
  9 24  1  0  0  0  0
  9 25  1  0  0  0  0
 10 26  1  0  0  0  0
 10 27  1  0  0  0  0
 11 28  1  0  0  0  0
 11 29  1  0  0  0  0
 12 30  1  0  0  0  0
 12 31  1  0  0  0  0
 13 32  1  0  0  0  0
 13 33  1  0  0  0  0
M  END
> <id>
342

> <casrn>
2511-00-4

> <smiles (First)>


> <Molecular weight>
184.27529907226562

> <name>
-

> <Outcome>
0

> <Molecule (RDKit Mol) (InChI Code)>
InChI=1S/C11H20O2/c1-3-13-11(12)9(2)10-7-5-4-6-8-10/h9-10H,3-8H2,1-2H3

> <reference>
ECHA

> <molecule_form>
A

$$$$

  Mrv1812 01171911372D          

 36 36  0  0  0  0            999 V2000
   -1.4156    6.6018    0.0000 C   0  0  0  0  0  0  0  0  0  0  0  0
   -1.4156    5.7768    0.0000 C   0  0  0  0  0  0  0  0  0  0  0  0
   -0.7011    5.3643    0.0000 C   0  0  0  0  0  0  0  0  0  0  0  0
   -0.7011    4.5393    0.0000 O   0  0  0  0  0  0  0  0  0  0  0  0
    0.0133    4.1268    0.0000 C   0  0  0  0  0  0  0  0  0  0  0  0
    0.7278    4.5393    0.0000 O   0  0  0  0  0  0  0  0  0  0  0  0
    0.0133    3.3018    0.0000 C   0  0  0  0  0  0  0  0  0  0  0  0
   -0.8117    3.3018    0.0000 C   0  0  0  0  0  0  0  0  0  0  0  0
    0.8383    3.3018    0.0000 C   0  0  0  0  0  0  0  0  0  0  0  0
    0.0133    2.4768    0.0000 O   0  0  0  0  0  0  0  0  0  0  0  0
    0.7278    2.0643    0.0000 C   0  0  0  0  0  0  0  0  0  0  0  0
    1.4423    2.4768    0.0000 O   0  0  0  0  0  0  0  0  0  0  0  0
    0.7278    1.2393    0.0000 C   0  0  0  0  0  0  0  0  0  0  0  0
    1.4423    0.8268    0.0000 C   0  0  0  0  0  0  0  0  0  0  0  0
    1.4423    0.0018    0.0000 C   0  0  0  0  0  0  0  0  0  0  0  0
    2.1567   -0.4107    0.0000 N   0  0  0  0  0  0  0  0  0  0  0  0
    0.7278   -0.4107    0.0000 C   0  0  0  0  0  0  0  0  0  0  0  0
    0.0133    0.0018    0.0000 C   0  0  0  0  0  0  0  0  0  0  0  0
    0.0133    0.8268    0.0000 C   0  0  0  0  0  0  0  0  0  0  0  0
   -0.7011    1.2393    0.0000 Cl  0  0  0  0  0  0  0  0  0  0  0  0
   -0.7011    7.0143    0.0000 H   0  0  0  0  0  0  0  0  0  0  0  0
   -2.1301    7.0143    0.0000 H   0  0  0  0  0  0  0  0  0  0  0  0
   -2.1301    5.3643    0.0000 H   0  0  0  0  0  0  0  0  0  0  0  0
    0.1225    5.4122    0.0000 H   0  0  0  0  0  0  0  0  0  0  0  0
   -0.2478    6.0536    0.0000 H   0  0  0  0  0  0  0  0  0  0  0  0
   -0.8117    4.1268    0.0000 H   0  0  0  0  0  0  0  0  0  0  0  0
   -1.6367    3.3018    0.0000 H   0  0  0  0  0  0  0  0  0  0  0  0
   -0.8117    2.4768    0.0000 H   0  0  0  0  0  0  0  0  0  0  0  0
    0.8383    2.4768    0.0000 H   0  0  0  0  0  0  0  0  0  0  0  0
    1.6633    3.3018    0.0000 H   0  0  0  0  0  0  0  0  0  0  0  0
    0.8383    4.1268    0.0000 H   0  0  0  0  0  0  0  0  0  0  0  0
    2.1567    1.2393    0.0000 H   0  0  0  0  0  0  0  0  0  0  0  0
    2.1567   -1.2357    0.0000 H   0  0  0  0  0  0  0  0  0  0  0  0
    2.8712    0.0018    0.0000 H   0  0  0  0  0  0  0  0  0  0  0  0
    0.7278   -1.2357    0.0000 H   0  0  0  0  0  0  0  0  0  0  0  0
   -0.7011   -0.4107    0.0000 H   0  0  0  0  0  0  0  0  0  0  0  0
  1  2  2  0  0  0  0
  2  3  1  0  0  0  0
  3  4  1  0  0  0  0
  4  5  1  0  0  0  0
  5  6  2  0  0  0  0
  5  7  1  0  0  0  0
  7  8  1  0  0  0  0
  7  9  1  0  0  0  0
  7 10  1  0  0  0  0
 10 11  1  0  0  0  0
 11 12  2  0  0  0  0
 11 13  1  0  0  0  0
 13 14  4  0  0  0  0
 14 15  4  0  0  0  0
 15 16  1  0  0  0  0
 15 17  4  0  0  0  0
 17 18  4  0  0  0  0
 18 19  4  0  0  0  0
 13 19  4  0  0  0  0
 19 20  1  0  0  0  0
  1 21  1  0  0  0  0
  1 22  1  0  0  0  0
  2 23  1  0  0  0  0
  3 24  1  0  0  0  0
  3 25  1  0  0  0  0
  8 26  1  0  0  0  0
  8 27  1  0  0  0  0
  8 28  1  0  0  0  0
  9 29  1  0  0  0  0
  9 30  1  0  0  0  0
  9 31  1  0  0  0  0
 14 32  1  0  0  0  0
 16 33  1  0  0  0  0
 16 34  1  0  0  0  0
 17 35  1  0  0  0  0
 18 36  1  0  0  0  0
M  END
> <id>
413

> <casrn>
174489-43-1

> <smiles (First)>


> <Molecular weight>
297.734130859375

> <name>
-

> <Outcome>
0

> <Molecule (RDKit Mol) (InChI Code)>
InChI=1S/C14H16ClNO4/c1-4-7-19-13(18)14(2,3)20-12(17)10-8-9(16)5-6-11(10)15/h4-6,8H,1,7,16H2,2-3H3

> <reference>
ECHA

> <molecule_form>
A

$$$$

  Mrv1812 01171911372D          

 34 36  0  0  0  0            999 V2000
   -0.6902    1.9719    0.0000 C   0  0  0  0  0  0  0  0  0  0  0  0
    0.0243    1.5594    0.0000 C   0  0  0  0  0  0  0  0  0  0  0  0
    0.0243    0.7344    0.0000 C   0  0  0  0  0  0  0  0  0  0  0  0
   -0.6902    0.3219    0.0000 C   0  0  0  0  0  0  0  0  0  0  0  0
   -0.6902   -0.5031    0.0000 P   0  0  0  0  0  0  0  0  0  0  0  0
   -1.4047   -0.9156    0.0000 C   0  0  0  0  0  0  0  0  0  0  0  0
   -1.4047   -1.7406    0.0000 C   0  0  0  0  0  0  0  0  0  0  0  0
   -2.1192   -2.1531    0.0000 C   0  0  0  0  0  0  0  0  0  0  0  0
   -2.8336   -1.7406    0.0000 C   0  0  0  0  0  0  0  0  0  0  0  0
   -2.8336   -0.9156    0.0000 C   0  0  0  0  0  0  0  0  0  0  0  0
   -2.1192   -0.5031    0.0000 C   0  0  0  0  0  0  0  0  0  0  0  0
    0.0243   -0.9156    0.0000 C   0  0  0  0  0  0  0  0  0  0  0  0
    0.7387   -0.5031    0.0000 C   0  0  0  0  0  0  0  0  0  0  0  0
    1.4532   -0.9156    0.0000 C   0  0  0  0  0  0  0  0  0  0  0  0
    1.4532   -1.7406    0.0000 C   0  0  0  0  0  0  0  0  0  0  0  0
    0.7387   -2.1531    0.0000 C   0  0  0  0  0  0  0  0  0  0  0  0
    0.0243   -1.7406    0.0000 C   0  0  0  0  0  0  0  0  0  0  0  0
   -1.4047    0.7344    0.0000 C   0  0  0  0  0  0  0  0  0  0  0  0
   -1.4047    1.5594    0.0000 C   0  0  0  0  0  0  0  0  0  0  0  0
   -0.6902    2.7969    0.0000 H   0  0  0  0  0  0  0  0  0  0  0  0
    0.7387    1.9719    0.0000 H   0  0  0  0  0  0  0  0  0  0  0  0
    0.7387    0.3219    0.0000 H   0  0  0  0  0  0  0  0  0  0  0  0
   -0.6902   -2.1531    0.0000 H   0  0  0  0  0  0  0  0  0  0  0  0
   -2.1192   -2.9781    0.0000 H   0  0  0  0  0  0  0  0  0  0  0  0
   -3.5481   -2.1531    0.0000 H   0  0  0  0  0  0  0  0  0  0  0  0
   -3.5481   -0.5031    0.0000 H   0  0  0  0  0  0  0  0  0  0  0  0
   -2.1192    0.3219    0.0000 H   0  0  0  0  0  0  0  0  0  0  0  0
    0.0243   -0.0906    0.0000 H   0  0  0  0  0  0  0  0  0  0  0  0
    2.1677   -0.5031    0.0000 H   0  0  0  0  0  0  0  0  0  0  0  0
    2.1677   -2.1531    0.0000 H   0  0  0  0  0  0  0  0  0  0  0  0
    0.7387   -2.9781    0.0000 H   0  0  0  0  0  0  0  0  0  0  0  0
   -0.6902   -1.3281    0.0000 H   0  0  0  0  0  0  0  0  0  0  0  0
   -2.1192    1.1469    0.0000 H   0  0  0  0  0  0  0  0  0  0  0  0
   -1.8172    2.2739    0.0000 H   0  0  0  0  0  0  0  0  0  0  0  0
  1  2  4  0  0  0  0
  2  3  4  0  0  0  0
  3  4  4  0  0  0  0
  4  5  1  0  0  0  0
  5  6  1  0  0  0  0
  6  7  4  0  0  0  0
  7  8  4  0  0  0  0
  8  9  4  0  0  0  0
  9 10  4  0  0  0  0
 10 11  4  0  0  0  0
  6 11  4  0  0  0  0
  5 12  1  0  0  0  0
 12 13  4  0  0  0  0
 13 14  4  0  0  0  0
 14 15  4  0  0  0  0
 15 16  4  0  0  0  0
 16 17  4  0  0  0  0
 12 17  4  0  0  0  0
  4 18  4  0  0  0  0
 18 19  4  0  0  0  0
  1 19  4  0  0  0  0
  1 20  1  0  0  0  0
  2 21  1  0  0  0  0
  3 22  1  0  0  0  0
  7 23  1  0  0  0  0
  8 24  1  0  0  0  0
  9 25  1  0  0  0  0
 10 26  1  0  0  0  0
 11 27  1  0  0  0  0
 13 28  1  0  0  0  0
 14 29  1  0  0  0  0
 15 30  1  0  0  0  0
 16 31  1  0  0  0  0
 17 32  1  0  0  0  0
 18 33  1  0  0  0  0
 19 34  1  0  0  0  0
M  END
> <id>
4107

> <casrn>
603-35-0

> <smiles (First)>


> <Molecular weight>
262.28546142578125

> <name>
triphenylphosphane

> <Outcome>
0

> <Molecule (RDKit Mol) (InChI Code)>
InChI=1S/C18H15P/c1-4-10-16(11-5-1)19(17-12-6-2-7-13-17)18-14-8-3-9-15-18/h1-15H

> <reference>
ECHA

> <molecule_form>
A

$$$$

  Mrv1812 01171911372D          

 45 45  0  0  0  0            999 V2000
    4.6845   -4.9825    0.0000 C   0  0  0  0  0  0  0  0  0  0  0  0
    5.3989   -4.5700    0.0000 C   0  0  0  0  0  0  0  0  0  0  0  0
    6.1134   -4.9825    0.0000 C   0  0  0  0  0  0  0  0  0  0  0  0
    6.8279   -4.5700    0.0000 C   0  0  0  0  0  0  0  0  0  0  0  0
    7.5424   -4.9825    0.0000 C   0  0  0  0  0  0  0  0  0  0  0  0
    8.2568   -4.5700    0.0000 C   0  0  0  0  0  0  0  0  0  0  0  0
    8.9713   -4.9825    0.0000 C   0  0  0  0  0  0  0  0  0  0  0  0
    9.6858   -4.5700    0.0000 C   0  0  0  0  0  0  0  0  0  0  0  0
   10.4002   -4.9825    0.0000 C   0  0  0  0  0  0  0  0  0  0  0  0
   11.1147   -4.5700    0.0000 C   0  0  0  0  0  0  0  0  0  0  0  0
   11.8292   -4.9825    0.0000 C   0  0  0  0  0  0  0  0  0  0  0  0
   12.5437   -4.5700    0.0000 C   0  0  0  0  0  0  0  0  0  0  0  0
   13.2581   -4.9825    0.0000 C   0  0  0  0  0  0  0  0  0  0  0  0
   14.0118   -4.6469    0.0000 C   0  0  0  0  0  0  0  0  0  0  0  0
   14.5638   -5.2600    0.0000 C   0  0  0  0  0  0  0  0  0  0  0  0
   15.3843   -5.1738    0.0000 O   0  0  0  0  0  0  0  0  0  0  0  0
   14.1513   -5.9745    0.0000 O   0  0  0  0  0  0  0  0  0  0  0  0
   13.3444   -5.8030    0.0000 C   0  0  0  0  0  0  0  0  0  0  0  0
   12.7313   -6.3550    0.0000 O   0  0  0  0  0  0  0  0  0  0  0  0
    4.2720   -4.2680    0.0000 H   0  0  0  0  0  0  0  0  0  0  0  0
    3.9700   -5.3950    0.0000 H   0  0  0  0  0  0  0  0  0  0  0  0
    5.0970   -5.6970    0.0000 H   0  0  0  0  0  0  0  0  0  0  0  0
    5.7692   -3.8327    0.0000 H   0  0  0  0  0  0  0  0  0  0  0  0
    5.0287   -3.8327    0.0000 H   0  0  0  0  0  0  0  0  0  0  0  0
    5.7432   -5.7197    0.0000 H   0  0  0  0  0  0  0  0  0  0  0  0
    6.4837   -5.7197    0.0000 H   0  0  0  0  0  0  0  0  0  0  0  0
    7.1981   -3.8327    0.0000 H   0  0  0  0  0  0  0  0  0  0  0  0
    6.4576   -3.8327    0.0000 H   0  0  0  0  0  0  0  0  0  0  0  0
    7.1721   -5.7197    0.0000 H   0  0  0  0  0  0  0  0  0  0  0  0
    7.9126   -5.7197    0.0000 H   0  0  0  0  0  0  0  0  0  0  0  0
    8.6271   -3.8327    0.0000 H   0  0  0  0  0  0  0  0  0  0  0  0
    7.8866   -3.8327    0.0000 H   0  0  0  0  0  0  0  0  0  0  0  0
    8.6010   -5.7197    0.0000 H   0  0  0  0  0  0  0  0  0  0  0  0
    9.3416   -5.7197    0.0000 H   0  0  0  0  0  0  0  0  0  0  0  0
   10.0560   -3.8327    0.0000 H   0  0  0  0  0  0  0  0  0  0  0  0
    9.3155   -3.8327    0.0000 H   0  0  0  0  0  0  0  0  0  0  0  0
   10.0300   -5.7197    0.0000 H   0  0  0  0  0  0  0  0  0  0  0  0
   10.7705   -5.7197    0.0000 H   0  0  0  0  0  0  0  0  0  0  0  0
   11.1147   -3.7450    0.0000 H   0  0  0  0  0  0  0  0  0  0  0  0
   11.8292   -5.8075    0.0000 H   0  0  0  0  0  0  0  0  0  0  0  0
   12.9139   -3.8327    0.0000 H   0  0  0  0  0  0  0  0  0  0  0  0
   12.1734   -3.8327    0.0000 H   0  0  0  0  0  0  0  0  0  0  0  0
   12.5662   -5.4318    0.0000 H   0  0  0  0  0  0  0  0  0  0  0  0
   14.5421   -4.0149    0.0000 H   0  0  0  0  0  0  0  0  0  0  0  0
   13.7844   -3.8539    0.0000 H   0  0  0  0  0  0  0  0  0  0  0  0
  1  2  1  0  0  0  0
  2  3  1  0  0  0  0
  3  4  1  0  0  0  0
  4  5  1  0  0  0  0
  5  6  1  0  0  0  0
  6  7  1  0  0  0  0
  7  8  1  0  0  0  0
  8  9  1  0  0  0  0
 10  9  1  4  0  0  0
 10 11  2  0  0  0  0
 11 12  1  0  0  0  0
 12 13  1  0  0  0  0
 13 14  1  0  0  0  0
 14 15  1  0  0  0  0
 15 16  2  0  0  0  0
 15 17  1  0  0  0  0
 17 18  1  0  0  0  0
 13 18  1  0  0  0  0
 18 19  2  0  0  0  0
  1 20  1  0  0  0  0
  1 21  1  0  0  0  0
  1 22  1  0  0  0  0
  2 23  1  0  0  0  0
  2 24  1  0  0  0  0
  3 25  1  0  0  0  0
  3 26  1  0  0  0  0
  4 27  1  0  0  0  0
  4 28  1  0  0  0  0
  5 29  1  0  0  0  0
  5 30  1  0  0  0  0
  6 31  1  0  0  0  0
  6 32  1  0  0  0  0
  7 33  1  0  0  0  0
  7 34  1  0  0  0  0
  8 35  1  0  0  0  0
  8 36  1  0  0  0  0
  9 37  1  0  0  0  0
  9 38  1  0  0  0  0
 10 39  1  0  0  0  0
 11 40  1  0  0  0  0
 12 41  1  0  0  0  0
 12 42  1  0  0  0  0
 13 43  1  0  0  0  0
 14 44  1  0  0  0  0
 14 45  1  0  0  0  0
M  END
> <id>
1763

> <casrn>
19780-11-1

> <smiles (First)>


> <Molecular weight>
266.3758544921875

> <name>
3-[(2E)-dodec-2-en-1-yl]oxolane-2,5-dione; 3-[(2Z)-dodec-2-en-1-yl]oxolane-2,5-dione

> <Outcome>
0

> <Molecule (RDKit Mol) (InChI Code)>
InChI=1S/C16H26O3/c1-2-3-4-5-6-7-8-9-10-11-12-14-13-15(17)19-16(14)18/h10-11,14H,2-9,12-13H2,1H3

> <reference>
ECHA

> <molecule_form>
A

$$$$

  Mrv1812 01171911372D          

 50 50  0  0  0  0            999 V2000
    1.5466    2.5651    0.0000 C   0  0  0  0  0  0  0  0  0  0  0  0
    1.5594    1.7402    0.0000 Si  0  0  0  0  0  0  0  0  0  0  0  0
    0.7448    1.8708    0.0000 C   0  0  0  0  0  0  0  0  0  0  0  0
    2.3696    1.8961    0.0000 O   0  0  0  0  0  0  0  0  0  0  0  0
    2.9096    1.2725    0.0000 Si  0  0  0  0  0  0  0  0  0  0  0  0
    3.4300    1.9126    0.0000 C   0  0  0  0  0  0  0  0  0  0  0  0
    3.6305    0.8711    0.0000 C   0  0  0  0  0  0  0  0  0  0  0  0
    2.6396    0.4929    0.0000 O   0  0  0  0  0  0  0  0  0  0  0  0
    1.8295    0.3370    0.0000 Si  0  0  0  0  0  0  0  0  0  0  0  0
    2.5503   -0.0643    0.0000 C   0  0  0  0  0  0  0  0  0  0  0  0
    2.1237   -0.4338    0.0000 C   0  0  0  0  0  0  0  0  0  0  0  0
    1.5594   -0.4426    0.0000 O   0  0  0  0  0  0  0  0  0  0  0  0
    0.7493   -0.5985    0.0000 Si  0  0  0  0  0  0  0  0  0  0  0  0
    1.0435   -1.3692    0.0000 C   0  0  0  0  0  0  0  0  0  0  0  0
    0.0413   -1.0221    0.0000 C   0  0  0  0  0  0  0  0  0  0  0  0
    0.2092    0.0252    0.0000 O   0  0  0  0  0  0  0  0  0  0  0  0
    0.4792    0.8047    0.0000 Si  0  0  0  0  0  0  0  0  0  0  0  0
   -0.3354    0.9353    0.0000 C   0  0  0  0  0  0  0  0  0  0  0  0
    0.4664    1.6296    0.0000 C   0  0  0  0  0  0  0  0  0  0  0  0
    1.2894    0.9606    0.0000 O   0  0  0  0  0  0  0  0  0  0  0  0
    2.3715    2.5779    0.0000 H   0  0  0  0  0  0  0  0  0  0  0  0
    1.5337    3.3900    0.0000 H   0  0  0  0  0  0  0  0  0  0  0  0
    0.7217    2.5522    0.0000 H   0  0  0  0  0  0  0  0  0  0  0  0
   -0.0113    2.2008    0.0000 H   0  0  0  0  0  0  0  0  0  0  0  0
    0.9707    1.0773    0.0000 H   0  0  0  0  0  0  0  0  0  0  0  0
    1.3635    2.4166    0.0000 H   0  0  0  0  0  0  0  0  0  0  0  0
    4.0702    1.3923    0.0000 H   0  0  0  0  0  0  0  0  0  0  0  0
    3.9504    2.5528    0.0000 H   0  0  0  0  0  0  0  0  0  0  0  0
    2.7898    2.4330    0.0000 H   0  0  0  0  0  0  0  0  0  0  0  0
    2.9599    0.3905    0.0000 H   0  0  0  0  0  0  0  0  0  0  0  0
    3.7789    0.0596    0.0000 H   0  0  0  0  0  0  0  0  0  0  0  0
    4.4277    0.6591    0.0000 H   0  0  0  0  0  0  0  0  0  0  0  0
    2.5167   -0.8886    0.0000 H   0  0  0  0  0  0  0  0  0  0  0  0
    3.1280   -0.6533    0.0000 H   0  0  0  0  0  0  0  0  0  0  0  0
    3.3751   -0.0468    0.0000 H   0  0  0  0  0  0  0  0  0  0  0  0
    1.4348   -0.8876    0.0000 H   0  0  0  0  0  0  0  0  0  0  0  0
    1.7863   -1.1866    0.0000 H   0  0  0  0  0  0  0  0  0  0  0  0
    2.2434   -1.2500    0.0000 H   0  0  0  0  0  0  0  0  0  0  0  0
    0.2199   -1.3206    0.0000 H   0  0  0  0  0  0  0  0  0  0  0  0
    0.6607   -2.1000    0.0000 H   0  0  0  0  0  0  0  0  0  0  0  0
    1.5524   -2.0186    0.0000 H   0  0  0  0  0  0  0  0  0  0  0  0
   -0.0791   -0.2059    0.0000 H   0  0  0  0  0  0  0  0  0  0  0  0
   -0.7588   -0.8210    0.0000 H   0  0  0  0  0  0  0  0  0  0  0  0
   -0.4507   -1.6843    0.0000 H   0  0  0  0  0  0  0  0  0  0  0  0
   -0.2048    1.7499    0.0000 H   0  0  0  0  0  0  0  0  0  0  0  0
   -1.1500    1.0659    0.0000 H   0  0  0  0  0  0  0  0  0  0  0  0
   -0.4659    0.1207    0.0000 H   0  0  0  0  0  0  0  0  0  0  0  0
   -0.3301    1.4147    0.0000 H   0  0  0  0  0  0  0  0  0  0  0  0
   -0.1622    1.0953    0.0000 H   0  0  0  0  0  0  0  0  0  0  0  0
    0.1260    0.8781    0.0000 H   0  0  0  0  0  0  0  0  0  0  0  0
  1  2  1  0  0  0  0
  2  3  1  0  0  0  0
  2  4  1  0  0  0  0
  4  5  1  0  0  0  0
  5  6  1  0  0  0  0
  5  7  1  0  0  0  0
  5  8  1  0  0  0  0
  8  9  1  0  0  0  0
  9 10  1  0  0  0  0
  9 11  1  0  0  0  0
  9 12  1  0  0  0  0
 12 13  1  0  0  0  0
 13 14  1  0  0  0  0
 13 15  1  0  0  0  0
 13 16  1  0  0  0  0
 16 17  1  0  0  0  0
 17 18  1  0  0  0  0
 17 19  1  0  0  0  0
 17 20  1  0  0  0  0
  2 20  1  0  0  0  0
  1 21  1  0  0  0  0
  1 22  1  0  0  0  0
  1 23  1  0  0  0  0
  3 24  1  0  0  0  0
  3 25  1  0  0  0  0
  3 26  1  0  0  0  0
  6 27  1  0  0  0  0
  6 28  1  0  0  0  0
  6 29  1  0  0  0  0
  7 30  1  0  0  0  0
  7 31  1  0  0  0  0
  7 32  1  0  0  0  0
 10 33  1  0  0  0  0
 10 34  1  0  0  0  0
 10 35  1  0  0  0  0
 11 36  1  0  0  0  0
 11 37  1  0  0  0  0
 11 38  1  0  0  0  0
 14 39  1  0  0  0  0
 14 40  1  0  0  0  0
 14 41  1  0  0  0  0
 15 42  1  0  0  0  0
 15 43  1  0  0  0  0
 15 44  1  0  0  0  0
 18 45  1  0  0  0  0
 18 46  1  0  0  0  0
 18 47  1  0  0  0  0
 19 48  1  0  0  0  0
 19 49  1  0  0  0  0
 19 50  1  0  0  0  0
M  END
> <id>
2885; 2884

> <casrn>
541-02-6

> <smiles (First)>


> <Molecular weight>
370.76971435546875

> <name>
decamethyl-1,3,5,7,9,2,4,6,8,10-pentaoxapentasilecane

> <Outcome>
0

> <Molecule (RDKit Mol) (InChI Code)>
InChI=1S/C10H30O5Si5/c1-16(2)11-17(3,4)13-19(7,8)15-20(9,10)14-18(5,6)12-16/h1-10H3

> <reference>
ECHA

> <molecule_form>
A

$$$$

  Mrv1812 01171911372D          

 19 18  0  0  0  0            999 V2000
    1.2693    2.2620    0.0000 C   0  0  0  0  0  0  0  0  0  0  0  0
    0.8568    1.5475    0.0000 C   0  0  0  0  0  0  0  0  0  0  0  0
    0.0318    1.5475    0.0000 O   0  0  0  0  0  0  0  0  0  0  0  0
    1.2693    0.8331    0.0000 C   0  0  0  0  0  0  0  0  0  0  0  0
    2.0943    0.8331    0.0000 O   0  0  0  0  0  0  0  0  0  0  0  0
    0.8568    0.1186    0.0000 N   0  0  0  0  0  0  0  0  0  0  0  0
    1.2693   -0.5959    0.0000 C   0  0  0  0  0  0  0  0  0  0  0  0
    0.0318    0.1186    0.0000 C   0  0  0  0  0  0  0  0  0  0  0  0
    1.9838    1.8495    0.0000 H   0  0  0  0  0  0  0  0  0  0  0  0
    1.6818    2.9765    0.0000 H   0  0  0  0  0  0  0  0  0  0  0  0
    0.5548    2.6745    0.0000 H   0  0  0  0  0  0  0  0  0  0  0  0
    0.4443    2.2620    0.0000 H   0  0  0  0  0  0  0  0  0  0  0  0
   -0.6827    1.1350    0.0000 H   0  0  0  0  0  0  0  0  0  0  0  0
    0.5548   -1.0084    0.0000 H   0  0  0  0  0  0  0  0  0  0  0  0
    1.6818   -1.3103    0.0000 H   0  0  0  0  0  0  0  0  0  0  0  0
    1.9838   -0.1834    0.0000 H   0  0  0  0  0  0  0  0  0  0  0  0
    0.0318    0.9436    0.0000 H   0  0  0  0  0  0  0  0  0  0  0  0
   -0.7932    0.1186    0.0000 H   0  0  0  0  0  0  0  0  0  0  0  0
    0.0318   -0.7064    0.0000 H   0  0  0  0  0  0  0  0  0  0  0  0
  1  2  1  0  0  0  0
  2  3  1  0  0  0  0
  2  4  1  0  0  0  0
  4  5  2  0  0  0  0
  4  6  1  0  0  0  0
  6  7  1  0  0  0  0
  6  8  1  0  0  0  0
  1  9  1  0  0  0  0
  1 10  1  0  0  0  0
  1 11  1  0  0  0  0
  2 12  1  0  0  0  0
  3 13  1  0  0  0  0
  7 14  1  0  0  0  0
  7 15  1  0  0  0  0
  7 16  1  0  0  0  0
  8 17  1  0  0  0  0
  8 18  1  0  0  0  0
  8 19  1  0  0  0  0
M  END
> <id>
469

> <casrn>
35123-06-9

> <smiles (First)>


> <Molecular weight>
117.1463394165039

> <name>
-

> <Outcome>
0

> <Molecule (RDKit Mol) (InChI Code)>
InChI=1S/C5H11NO2/c1-4(7)5(8)6(2)3/h4,7H,1-3H3

> <reference>
ECHA

> <molecule_form>
A

$$$$

  Mrv1812 01171911372D          

 44 43  0  0  0  0            999 V2000
    4.7586    3.5724    0.0000 C   0  0  0  0  0  0  0  0  0  0  0  0
    5.4730    3.9849    0.0000 C   0  0  0  0  0  0  0  0  0  0  0  0
    6.1875    3.5724    0.0000 C   0  0  0  0  0  0  0  0  0  0  0  0
    6.9020    3.9849    0.0000 C   0  0  0  0  0  0  0  0  0  0  0  0
    7.6164    3.5724    0.0000 C   0  0  0  0  0  0  0  0  0  0  0  0
    8.3309    3.9849    0.0000 C   0  0  0  0  0  0  0  0  0  0  0  0
    9.0454    3.5724    0.0000 C   0  0  0  0  0  0  0  0  0  0  0  0
    9.7599    3.9849    0.0000 C   0  0  0  0  0  0  0  0  0  0  0  0
   10.4743    3.5724    0.0000 C   0  0  0  0  0  0  0  0  0  0  0  0
   11.1888    3.9849    0.0000 C   0  0  0  0  0  0  0  0  0  0  0  0
   11.9033    3.5724    0.0000 C   0  0  0  0  0  0  0  0  0  0  0  0
   12.6177    3.9849    0.0000 C   0  0  0  0  0  0  0  0  0  0  0  0
   13.3322    3.5724    0.0000 C   0  0  0  0  0  0  0  0  0  0  0  0
   14.0467    3.9849    0.0000 C   0  0  0  0  0  0  0  0  0  0  0  0
    4.3461    4.2869    0.0000 H   0  0  0  0  0  0  0  0  0  0  0  0
    4.0441    3.1599    0.0000 H   0  0  0  0  0  0  0  0  0  0  0  0
    5.1711    2.8579    0.0000 H   0  0  0  0  0  0  0  0  0  0  0  0
    5.8433    4.7221    0.0000 H   0  0  0  0  0  0  0  0  0  0  0  0
    5.1028    4.7221    0.0000 H   0  0  0  0  0  0  0  0  0  0  0  0
    5.8172    2.8352    0.0000 H   0  0  0  0  0  0  0  0  0  0  0  0
    6.5578    2.8352    0.0000 H   0  0  0  0  0  0  0  0  0  0  0  0
    7.2722    4.7221    0.0000 H   0  0  0  0  0  0  0  0  0  0  0  0
    6.5317    4.7221    0.0000 H   0  0  0  0  0  0  0  0  0  0  0  0
    7.2462    2.8352    0.0000 H   0  0  0  0  0  0  0  0  0  0  0  0
    7.9867    2.8352    0.0000 H   0  0  0  0  0  0  0  0  0  0  0  0
    8.7012    4.7221    0.0000 H   0  0  0  0  0  0  0  0  0  0  0  0
    7.9607    4.7221    0.0000 H   0  0  0  0  0  0  0  0  0  0  0  0
    8.6751    2.8352    0.0000 H   0  0  0  0  0  0  0  0  0  0  0  0
    9.4156    2.8352    0.0000 H   0  0  0  0  0  0  0  0  0  0  0  0
   10.1301    4.7221    0.0000 H   0  0  0  0  0  0  0  0  0  0  0  0
    9.3896    4.7221    0.0000 H   0  0  0  0  0  0  0  0  0  0  0  0
   10.1041    2.8352    0.0000 H   0  0  0  0  0  0  0  0  0  0  0  0
   10.8446    2.8352    0.0000 H   0  0  0  0  0  0  0  0  0  0  0  0
   11.5591    4.7221    0.0000 H   0  0  0  0  0  0  0  0  0  0  0  0
   10.8185    4.7221    0.0000 H   0  0  0  0  0  0  0  0  0  0  0  0
   11.5330    2.8352    0.0000 H   0  0  0  0  0  0  0  0  0  0  0  0
   12.2735    2.8352    0.0000 H   0  0  0  0  0  0  0  0  0  0  0  0
   12.9880    4.7221    0.0000 H   0  0  0  0  0  0  0  0  0  0  0  0
   12.2475    4.7221    0.0000 H   0  0  0  0  0  0  0  0  0  0  0  0
   12.9620    2.8352    0.0000 H   0  0  0  0  0  0  0  0  0  0  0  0
   13.7025    2.8352    0.0000 H   0  0  0  0  0  0  0  0  0  0  0  0
   14.4592    3.2704    0.0000 H   0  0  0  0  0  0  0  0  0  0  0  0
   14.7612    4.3974    0.0000 H   0  0  0  0  0  0  0  0  0  0  0  0
   13.6342    4.6994    0.0000 H   0  0  0  0  0  0  0  0  0  0  0  0
  1  2  1  0  0  0  0
  2  3  1  0  0  0  0
  3  4  1  0  0  0  0
  4  5  1  0  0  0  0
  5  6  1  0  0  0  0
  6  7  1  0  0  0  0
  7  8  1  0  0  0  0
  8  9  1  0  0  0  0
  9 10  1  0  0  0  0
 10 11  1  0  0  0  0
 11 12  1  0  0  0  0
 12 13  1  0  0  0  0
 13 14  1  0  0  0  0
  1 15  1  0  0  0  0
  1 16  1  0  0  0  0
  1 17  1  0  0  0  0
  2 18  1  0  0  0  0
  2 19  1  0  0  0  0
  3 20  1  0  0  0  0
  3 21  1  0  0  0  0
  4 22  1  0  0  0  0
  4 23  1  0  0  0  0
  5 24  1  0  0  0  0
  5 25  1  0  0  0  0
  6 26  1  0  0  0  0
  6 27  1  0  0  0  0
  7 28  1  0  0  0  0
  7 29  1  0  0  0  0
  8 30  1  0  0  0  0
  8 31  1  0  0  0  0
  9 32  1  0  0  0  0
  9 33  1  0  0  0  0
 10 34  1  0  0  0  0
 10 35  1  0  0  0  0
 11 36  1  0  0  0  0
 11 37  1  0  0  0  0
 12 38  1  0  0  0  0
 12 39  1  0  0  0  0
 13 40  1  0  0  0  0
 13 41  1  0  0  0  0
 14 42  1  0  0  0  0
 14 43  1  0  0  0  0
 14 44  1  0  0  0  0
M  END
> <id>
3964; 3969; 3968; 3963; 3965

> <casrn>
629-59-4

> <smiles (First)>


> <Molecular weight>
198.38800048828125

> <name>
tetradecane

> <Outcome>
0

> <Molecule (RDKit Mol) (InChI Code)>
InChI=1S/C14H30/c1-3-5-7-9-11-13-14-12-10-8-6-4-2/h3-14H2,1-2H3

> <reference>
ECHA

> <molecule_form>
V; A

$$$$

  Mrv1812 01171911372D          

 32 31  0  0  0  0            999 V2000
    2.2836    2.1434    0.0000 C   0  0  0  0  0  0  0  0  0  0  0  0
    2.9980    2.5559    0.0000 C   0  0  0  0  0  0  0  0  0  0  0  0
    3.7125    2.1434    0.0000 C   0  0  0  0  0  0  0  0  0  0  0  0
    4.4270    2.5559    0.0000 C   0  0  0  0  0  0  0  0  0  0  0  0
    5.1414    2.1434    0.0000 C   0  0  0  0  0  0  0  0  0  0  0  0
    5.8559    2.5559    0.0000 C   0  0  0  0  0  0  0  0  0  0  0  0
    6.5704    2.1434    0.0000 C   0  0  0  0  0  0  0  0  0  0  0  0
    7.2849    2.5559    0.0000 C   0  0  0  0  0  0  0  0  0  0  0  0
    7.9993    2.1434    0.0000 C   0  0  0  0  0  0  0  0  0  0  0  0
    8.7138    2.5559    0.0000 C   0  0  0  0  0  0  0  0  0  0  0  0
    1.8711    2.8579    0.0000 H   0  0  0  0  0  0  0  0  0  0  0  0
    1.5691    1.7309    0.0000 H   0  0  0  0  0  0  0  0  0  0  0  0
    2.6961    1.4289    0.0000 H   0  0  0  0  0  0  0  0  0  0  0  0
    3.3683    3.2931    0.0000 H   0  0  0  0  0  0  0  0  0  0  0  0
    2.6278    3.2931    0.0000 H   0  0  0  0  0  0  0  0  0  0  0  0
    3.3422    1.4062    0.0000 H   0  0  0  0  0  0  0  0  0  0  0  0
    4.0828    1.4062    0.0000 H   0  0  0  0  0  0  0  0  0  0  0  0
    4.7972    3.2931    0.0000 H   0  0  0  0  0  0  0  0  0  0  0  0
    4.0567    3.2931    0.0000 H   0  0  0  0  0  0  0  0  0  0  0  0
    4.7712    1.4062    0.0000 H   0  0  0  0  0  0  0  0  0  0  0  0
    5.5117    1.4062    0.0000 H   0  0  0  0  0  0  0  0  0  0  0  0
    6.2262    3.2931    0.0000 H   0  0  0  0  0  0  0  0  0  0  0  0
    5.4857    3.2931    0.0000 H   0  0  0  0  0  0  0  0  0  0  0  0
    6.2001    1.4062    0.0000 H   0  0  0  0  0  0  0  0  0  0  0  0
    6.9406    1.4062    0.0000 H   0  0  0  0  0  0  0  0  0  0  0  0
    7.6551    3.2931    0.0000 H   0  0  0  0  0  0  0  0  0  0  0  0
    6.9146    3.2931    0.0000 H   0  0  0  0  0  0  0  0  0  0  0  0
    7.6291    1.4062    0.0000 H   0  0  0  0  0  0  0  0  0  0  0  0
    8.3696    1.4062    0.0000 H   0  0  0  0  0  0  0  0  0  0  0  0
    9.1263    1.8414    0.0000 H   0  0  0  0  0  0  0  0  0  0  0  0
    9.4283    2.9684    0.0000 H   0  0  0  0  0  0  0  0  0  0  0  0
    8.3013    3.2704    0.0000 H   0  0  0  0  0  0  0  0  0  0  0  0
  1  2  1  0  0  0  0
  2  3  1  0  0  0  0
  3  4  1  0  0  0  0
  4  5  1  0  0  0  0
  5  6  1  0  0  0  0
  6  7  1  0  0  0  0
  7  8  1  0  0  0  0
  8  9  1  0  0  0  0
  9 10  1  0  0  0  0
  1 11  1  0  0  0  0
  1 12  1  0  0  0  0
  1 13  1  0  0  0  0
  2 14  1  0  0  0  0
  2 15  1  0  0  0  0
  3 16  1  0  0  0  0
  3 17  1  0  0  0  0
  4 18  1  0  0  0  0
  4 19  1  0  0  0  0
  5 20  1  0  0  0  0
  5 21  1  0  0  0  0
  6 22  1  0  0  0  0
  6 23  1  0  0  0  0
  7 24  1  0  0  0  0
  7 25  1  0  0  0  0
  8 26  1  0  0  0  0
  8 27  1  0  0  0  0
  9 28  1  0  0  0  0
  9 29  1  0  0  0  0
 10 30  1  0  0  0  0
 10 31  1  0  0  0  0
 10 32  1  0  0  0  0
M  END
> <id>
2896; 2892; 2893; 2895; 2889

> <casrn>
124-18-5

> <smiles (First)>


> <Molecular weight>
142.28167724609375

> <name>
decane

> <Outcome>
0

> <Molecule (RDKit Mol) (InChI Code)>
InChI=1S/C10H22/c1-3-5-7-9-10-8-6-4-2/h3-10H2,1-2H3

> <reference>
ECHA

> <molecule_form>
V; A

$$$$

  Mrv1812 01171911372D          

 20 19  0  0  0  0            999 V2000
    1.7605    1.8432    0.0000 C   0  0  0  0  0  0  0  0  0  0  0  0
    2.4750    1.4307    0.0000 C   0  0  0  0  0  0  0  0  0  0  0  0
    3.1895    1.8432    0.0000 C   0  0  0  0  0  0  0  0  0  0  0  0
    3.9039    1.4307    0.0000 C   0  0  0  0  0  0  0  0  0  0  0  0
    4.6184    1.8432    0.0000 O   0  0  0  0  0  0  0  0  0  0  0  0
    5.3329    1.4307    0.0000 C   0  0  0  0  0  0  0  0  0  0  0  0
    6.0474    1.8432    0.0000 C   0  0  0  0  0  0  0  0  0  0  0  0
    5.3329    0.6057    0.0000 O   0  0  0  0  0  0  0  0  0  0  0  0
    2.1730    2.5577    0.0000 H   0  0  0  0  0  0  0  0  0  0  0  0
    1.0461    2.2557    0.0000 H   0  0  0  0  0  0  0  0  0  0  0  0
    1.3480    1.1287    0.0000 H   0  0  0  0  0  0  0  0  0  0  0  0
    2.1047    0.6934    0.0000 H   0  0  0  0  0  0  0  0  0  0  0  0
    2.8453    0.6934    0.0000 H   0  0  0  0  0  0  0  0  0  0  0  0
    3.5597    2.5804    0.0000 H   0  0  0  0  0  0  0  0  0  0  0  0
    2.8192    2.5804    0.0000 H   0  0  0  0  0  0  0  0  0  0  0  0
    3.5337    0.6934    0.0000 H   0  0  0  0  0  0  0  0  0  0  0  0
    4.2742    0.6934    0.0000 H   0  0  0  0  0  0  0  0  0  0  0  0
    6.4599    1.1287    0.0000 H   0  0  0  0  0  0  0  0  0  0  0  0
    6.7618    2.2557    0.0000 H   0  0  0  0  0  0  0  0  0  0  0  0
    5.6349    2.5577    0.0000 H   0  0  0  0  0  0  0  0  0  0  0  0
  1  2  1  0  0  0  0
  2  3  1  0  0  0  0
  3  4  1  0  0  0  0
  4  5  1  0  0  0  0
  5  6  1  0  0  0  0
  6  7  1  0  0  0  0
  6  8  2  0  0  0  0
  1  9  1  0  0  0  0
  1 10  1  0  0  0  0
  1 11  1  0  0  0  0
  2 12  1  0  0  0  0
  2 13  1  0  0  0  0
  3 14  1  0  0  0  0
  3 15  1  0  0  0  0
  4 16  1  0  0  0  0
  4 17  1  0  0  0  0
  7 18  1  0  0  0  0
  7 19  1  0  0  0  0
  7 20  1  0  0  0  0
M  END
> <id>
2714; 2717; 2710; 2716; 2715

> <casrn>
123-86-4

> <smiles (First)>


> <Molecular weight>
116.1582794189453

> <name>
butyl acetate

> <Outcome>
0

> <Molecule (RDKit Mol) (InChI Code)>
InChI=1S/C6H12O2/c1-3-4-5-8-6(2)7/h3-5H2,1-2H3

> <reference>
ECHA

> <molecule_form>
V; A

$$$$

  Mrv1812 01171911372D          

 41 40  0  0  0  0            999 V2000
    5.4730    3.9857    0.0000 C   0  0  0  0  0  0  0  0  0  0  0  0
    6.1875    3.5732    0.0000 C   0  0  0  0  0  0  0  0  0  0  0  0
    6.9020    3.9857    0.0000 C   0  0  0  0  0  0  0  0  0  0  0  0
    7.6164    3.5732    0.0000 C   0  0  0  0  0  0  0  0  0  0  0  0
    8.3309    3.9857    0.0000 C   0  0  0  0  0  0  0  0  0  0  0  0
    9.0454    3.5732    0.0000 C   0  0  0  0  0  0  0  0  0  0  0  0
    9.7599    3.9857    0.0000 C   0  0  0  0  0  0  0  0  0  0  0  0
   10.4743    3.5732    0.0000 C   0  0  0  0  0  0  0  0  0  0  0  0
   11.1888    3.9857    0.0000 C   0  0  0  0  0  0  0  0  0  0  0  0
   11.9033    3.5732    0.0000 C   0  0  0  0  0  0  0  0  0  0  0  0
   12.6177    3.9857    0.0000 C   0  0  0  0  0  0  0  0  0  0  0  0
   13.3322    3.5732    0.0000 C   0  0  0  0  0  0  0  0  0  0  0  0
   14.0467    3.9857    0.0000 C   0  0  0  0  0  0  0  0  0  0  0  0
    5.8855    4.7002    0.0000 H   0  0  0  0  0  0  0  0  0  0  0  0
    4.7586    4.3982    0.0000 H   0  0  0  0  0  0  0  0  0  0  0  0
    5.0605    3.2713    0.0000 H   0  0  0  0  0  0  0  0  0  0  0  0
    5.8172    2.8360    0.0000 H   0  0  0  0  0  0  0  0  0  0  0  0
    6.5578    2.8360    0.0000 H   0  0  0  0  0  0  0  0  0  0  0  0
    7.2722    4.7230    0.0000 H   0  0  0  0  0  0  0  0  0  0  0  0
    6.5317    4.7230    0.0000 H   0  0  0  0  0  0  0  0  0  0  0  0
    7.2462    2.8360    0.0000 H   0  0  0  0  0  0  0  0  0  0  0  0
    7.9867    2.8360    0.0000 H   0  0  0  0  0  0  0  0  0  0  0  0
    8.7012    4.7230    0.0000 H   0  0  0  0  0  0  0  0  0  0  0  0
    7.9607    4.7230    0.0000 H   0  0  0  0  0  0  0  0  0  0  0  0
    8.6751    2.8360    0.0000 H   0  0  0  0  0  0  0  0  0  0  0  0
    9.4156    2.8360    0.0000 H   0  0  0  0  0  0  0  0  0  0  0  0
   10.1301    4.7230    0.0000 H   0  0  0  0  0  0  0  0  0  0  0  0
    9.3896    4.7230    0.0000 H   0  0  0  0  0  0  0  0  0  0  0  0
   10.1041    2.8360    0.0000 H   0  0  0  0  0  0  0  0  0  0  0  0
   10.8446    2.8360    0.0000 H   0  0  0  0  0  0  0  0  0  0  0  0
   11.5591    4.7230    0.0000 H   0  0  0  0  0  0  0  0  0  0  0  0
   10.8185    4.7230    0.0000 H   0  0  0  0  0  0  0  0  0  0  0  0
   11.5330    2.8360    0.0000 H   0  0  0  0  0  0  0  0  0  0  0  0
   12.2735    2.8360    0.0000 H   0  0  0  0  0  0  0  0  0  0  0  0
   12.9880    4.7230    0.0000 H   0  0  0  0  0  0  0  0  0  0  0  0
   12.2475    4.7230    0.0000 H   0  0  0  0  0  0  0  0  0  0  0  0
   12.9619    2.8360    0.0000 H   0  0  0  0  0  0  0  0  0  0  0  0
   13.7025    2.8360    0.0000 H   0  0  0  0  0  0  0  0  0  0  0  0
   14.4592    3.2713    0.0000 H   0  0  0  0  0  0  0  0  0  0  0  0
   14.7612    4.3982    0.0000 H   0  0  0  0  0  0  0  0  0  0  0  0
   13.6342    4.7002    0.0000 H   0  0  0  0  0  0  0  0  0  0  0  0
  1  2  1  0  0  0  0
  2  3  1  0  0  0  0
  3  4  1  0  0  0  0
  4  5  1  0  0  0  0
  5  6  1  0  0  0  0
  6  7  1  0  0  0  0
  7  8  1  0  0  0  0
  8  9  1  0  0  0  0
  9 10  1  0  0  0  0
 10 11  1  0  0  0  0
 11 12  1  0  0  0  0
 12 13  1  0  0  0  0
  1 14  1  0  0  0  0
  1 15  1  0  0  0  0
  1 16  1  0  0  0  0
  2 17  1  0  0  0  0
  2 18  1  0  0  0  0
  3 19  1  0  0  0  0
  3 20  1  0  0  0  0
  4 21  1  0  0  0  0
  4 22  1  0  0  0  0
  5 23  1  0  0  0  0
  5 24  1  0  0  0  0
  6 25  1  0  0  0  0
  6 26  1  0  0  0  0
  7 27  1  0  0  0  0
  7 28  1  0  0  0  0
  8 29  1  0  0  0  0
  8 30  1  0  0  0  0
  9 31  1  0  0  0  0
  9 32  1  0  0  0  0
 10 33  1  0  0  0  0
 10 34  1  0  0  0  0
 11 35  1  0  0  0  0
 11 36  1  0  0  0  0
 12 37  1  0  0  0  0
 12 38  1  0  0  0  0
 13 39  1  0  0  0  0
 13 40  1  0  0  0  0
 13 41  1  0  0  0  0
M  END
> <id>
4050; 4057; 4054; 4051; 4055

> <casrn>
629-50-5

> <smiles (First)>


> <Molecular weight>
184.36141967773438

> <name>
tridecane

> <Outcome>
0

> <Molecule (RDKit Mol) (InChI Code)>
InChI=1S/C13H28/c1-3-5-7-9-11-13-12-10-8-6-4-2/h3-13H2,1-2H3

> <reference>
ECHA

> <molecule_form>
V; A

$$$$

  Mrv1812 01171911372D          

 35 34  0  0  0  0            999 V2000
    4.2355    3.2714    0.0000 C   0  0  0  0  0  0  0  0  0  0  0  0
    4.9500    2.8589    0.0000 C   0  0  0  0  0  0  0  0  0  0  0  0
    5.6645    3.2714    0.0000 C   0  0  0  0  0  0  0  0  0  0  0  0
    6.3789    2.8589    0.0000 C   0  0  0  0  0  0  0  0  0  0  0  0
    7.0934    3.2714    0.0000 C   0  0  0  0  0  0  0  0  0  0  0  0
    7.8079    2.8589    0.0000 C   0  0  0  0  0  0  0  0  0  0  0  0
    8.5224    3.2714    0.0000 C   0  0  0  0  0  0  0  0  0  0  0  0
    9.2368    2.8589    0.0000 C   0  0  0  0  0  0  0  0  0  0  0  0
    9.9513    3.2714    0.0000 C   0  0  0  0  0  0  0  0  0  0  0  0
   10.6658    2.8589    0.0000 C   0  0  0  0  0  0  0  0  0  0  0  0
   11.3802    3.2714    0.0000 C   0  0  0  0  0  0  0  0  0  0  0  0
    4.6480    3.9859    0.0000 H   0  0  0  0  0  0  0  0  0  0  0  0
    3.5211    3.6839    0.0000 H   0  0  0  0  0  0  0  0  0  0  0  0
    3.8230    2.5569    0.0000 H   0  0  0  0  0  0  0  0  0  0  0  0
    4.5797    2.1217    0.0000 H   0  0  0  0  0  0  0  0  0  0  0  0
    5.3203    2.1217    0.0000 H   0  0  0  0  0  0  0  0  0  0  0  0
    6.0347    4.0087    0.0000 H   0  0  0  0  0  0  0  0  0  0  0  0
    5.2942    4.0087    0.0000 H   0  0  0  0  0  0  0  0  0  0  0  0
    6.0087    2.1217    0.0000 H   0  0  0  0  0  0  0  0  0  0  0  0
    6.7492    2.1217    0.0000 H   0  0  0  0  0  0  0  0  0  0  0  0
    7.4637    4.0087    0.0000 H   0  0  0  0  0  0  0  0  0  0  0  0
    6.7232    4.0087    0.0000 H   0  0  0  0  0  0  0  0  0  0  0  0
    7.4376    2.1217    0.0000 H   0  0  0  0  0  0  0  0  0  0  0  0
    8.1781    2.1217    0.0000 H   0  0  0  0  0  0  0  0  0  0  0  0
    8.8926    4.0087    0.0000 H   0  0  0  0  0  0  0  0  0  0  0  0
    8.1521    4.0087    0.0000 H   0  0  0  0  0  0  0  0  0  0  0  0
    8.8666    2.1217    0.0000 H   0  0  0  0  0  0  0  0  0  0  0  0
    9.6071    2.1217    0.0000 H   0  0  0  0  0  0  0  0  0  0  0  0
   10.3216    4.0087    0.0000 H   0  0  0  0  0  0  0  0  0  0  0  0
    9.5810    4.0087    0.0000 H   0  0  0  0  0  0  0  0  0  0  0  0
   10.2955    2.1217    0.0000 H   0  0  0  0  0  0  0  0  0  0  0  0
   11.0360    2.1217    0.0000 H   0  0  0  0  0  0  0  0  0  0  0  0
   11.7927    2.5569    0.0000 H   0  0  0  0  0  0  0  0  0  0  0  0
   12.0947    3.6839    0.0000 H   0  0  0  0  0  0  0  0  0  0  0  0
   10.9677    3.9859    0.0000 H   0  0  0  0  0  0  0  0  0  0  0  0
  1  2  1  0  0  0  0
  2  3  1  0  0  0  0
  3  4  1  0  0  0  0
  4  5  1  0  0  0  0
  5  6  1  0  0  0  0
  6  7  1  0  0  0  0
  7  8  1  0  0  0  0
  8  9  1  0  0  0  0
  9 10  1  0  0  0  0
 10 11  1  0  0  0  0
  1 12  1  0  0  0  0
  1 13  1  0  0  0  0
  1 14  1  0  0  0  0
  2 15  1  0  0  0  0
  2 16  1  0  0  0  0
  3 17  1  0  0  0  0
  3 18  1  0  0  0  0
  4 19  1  0  0  0  0
  4 20  1  0  0  0  0
  5 21  1  0  0  0  0
  5 22  1  0  0  0  0
  6 23  1  0  0  0  0
  6 24  1  0  0  0  0
  7 25  1  0  0  0  0
  7 26  1  0  0  0  0
  8 27  1  0  0  0  0
  8 28  1  0  0  0  0
  9 29  1  0  0  0  0
  9 30  1  0  0  0  0
 10 31  1  0  0  0  0
 10 32  1  0  0  0  0
 11 33  1  0  0  0  0
 11 34  1  0  0  0  0
 11 35  1  0  0  0  0
M  END
> <id>
4143; 4139; 4137; 4138; 4146

> <casrn>
1120-21-4

> <smiles (First)>


> <Molecular weight>
156.30825805664062

> <name>
undecane

> <Outcome>
0

> <Molecule (RDKit Mol) (InChI Code)>
InChI=1S/C11H24/c1-3-5-7-9-11-10-8-6-4-2/h3-11H2,1-2H3

> <reference>
ECHA

> <molecule_form>
V; A

$$$$

  Mrv1812 01171911372D          

 38 37  0  0  0  0            999 V2000
    3.5211    2.8579    0.0000 C   0  0  0  0  0  0  0  0  0  0  0  0
    4.2355    3.2704    0.0000 C   0  0  0  0  0  0  0  0  0  0  0  0
    4.9500    2.8579    0.0000 C   0  0  0  0  0  0  0  0  0  0  0  0
    5.6645    3.2704    0.0000 C   0  0  0  0  0  0  0  0  0  0  0  0
    6.3789    2.8579    0.0000 C   0  0  0  0  0  0  0  0  0  0  0  0
    7.0934    3.2704    0.0000 C   0  0  0  0  0  0  0  0  0  0  0  0
    7.8079    2.8579    0.0000 C   0  0  0  0  0  0  0  0  0  0  0  0
    8.5224    3.2704    0.0000 C   0  0  0  0  0  0  0  0  0  0  0  0
    9.2368    2.8579    0.0000 C   0  0  0  0  0  0  0  0  0  0  0  0
    9.9513    3.2704    0.0000 C   0  0  0  0  0  0  0  0  0  0  0  0
   10.6658    2.8579    0.0000 C   0  0  0  0  0  0  0  0  0  0  0  0
   11.3802    3.2704    0.0000 C   0  0  0  0  0  0  0  0  0  0  0  0
    3.1086    3.5724    0.0000 H   0  0  0  0  0  0  0  0  0  0  0  0
    2.8066    2.4454    0.0000 H   0  0  0  0  0  0  0  0  0  0  0  0
    3.9336    2.1434    0.0000 H   0  0  0  0  0  0  0  0  0  0  0  0
    4.6058    4.0076    0.0000 H   0  0  0  0  0  0  0  0  0  0  0  0
    3.8653    4.0076    0.0000 H   0  0  0  0  0  0  0  0  0  0  0  0
    4.5797    2.1207    0.0000 H   0  0  0  0  0  0  0  0  0  0  0  0
    5.3203    2.1207    0.0000 H   0  0  0  0  0  0  0  0  0  0  0  0
    6.0347    4.0076    0.0000 H   0  0  0  0  0  0  0  0  0  0  0  0
    5.2942    4.0076    0.0000 H   0  0  0  0  0  0  0  0  0  0  0  0
    6.0087    2.1207    0.0000 H   0  0  0  0  0  0  0  0  0  0  0  0
    6.7492    2.1207    0.0000 H   0  0  0  0  0  0  0  0  0  0  0  0
    7.4637    4.0076    0.0000 H   0  0  0  0  0  0  0  0  0  0  0  0
    6.7232    4.0076    0.0000 H   0  0  0  0  0  0  0  0  0  0  0  0
    7.4376    2.1207    0.0000 H   0  0  0  0  0  0  0  0  0  0  0  0
    8.1781    2.1207    0.0000 H   0  0  0  0  0  0  0  0  0  0  0  0
    8.8926    4.0076    0.0000 H   0  0  0  0  0  0  0  0  0  0  0  0
    8.1521    4.0076    0.0000 H   0  0  0  0  0  0  0  0  0  0  0  0
    8.8666    2.1207    0.0000 H   0  0  0  0  0  0  0  0  0  0  0  0
    9.6071    2.1207    0.0000 H   0  0  0  0  0  0  0  0  0  0  0  0
   10.3216    4.0076    0.0000 H   0  0  0  0  0  0  0  0  0  0  0  0
    9.5810    4.0076    0.0000 H   0  0  0  0  0  0  0  0  0  0  0  0
   10.2955    2.1207    0.0000 H   0  0  0  0  0  0  0  0  0  0  0  0
   11.0360    2.1207    0.0000 H   0  0  0  0  0  0  0  0  0  0  0  0
   11.7927    2.5559    0.0000 H   0  0  0  0  0  0  0  0  0  0  0  0
   12.0947    3.6829    0.0000 H   0  0  0  0  0  0  0  0  0  0  0  0
   10.9677    3.9849    0.0000 H   0  0  0  0  0  0  0  0  0  0  0  0
  1  2  1  0  0  0  0
  2  3  1  0  0  0  0
  3  4  1  0  0  0  0
  4  5  1  0  0  0  0
  5  6  1  0  0  0  0
  6  7  1  0  0  0  0
  7  8  1  0  0  0  0
  8  9  1  0  0  0  0
  9 10  1  0  0  0  0
 10 11  1  0  0  0  0
 11 12  1  0  0  0  0
  1 13  1  0  0  0  0
  1 14  1  0  0  0  0
  1 15  1  0  0  0  0
  2 16  1  0  0  0  0
  2 17  1  0  0  0  0
  3 18  1  0  0  0  0
  3 19  1  0  0  0  0
  4 20  1  0  0  0  0
  4 21  1  0  0  0  0
  5 22  1  0  0  0  0
  5 23  1  0  0  0  0
  6 24  1  0  0  0  0
  6 25  1  0  0  0  0
  7 26  1  0  0  0  0
  7 27  1  0  0  0  0
  8 28  1  0  0  0  0
  8 29  1  0  0  0  0
  9 30  1  0  0  0  0
  9 31  1  0  0  0  0
 10 32  1  0  0  0  0
 10 33  1  0  0  0  0
 11 34  1  0  0  0  0
 11 35  1  0  0  0  0
 12 36  1  0  0  0  0
 12 37  1  0  0  0  0
 12 38  1  0  0  0  0
M  END
> <id>
3103; 3100; 3105; 3104; 3099

> <casrn>
112-40-3

> <smiles (First)>


> <Molecular weight>
170.33483886718753

> <name>
dodecane

> <Outcome>
0

> <Molecule (RDKit Mol) (InChI Code)>
InChI=1S/C12H26/c1-3-5-7-9-11-12-10-8-6-4-2/h3-12H2,1-2H3

> <reference>
ECHA

> <molecule_form>
V; A

$$$$

  Mrv1812 01171911372D          

 38 37  0  0  0  0            999 V2000
   -0.6918   -0.6485    0.0000 C   0  0  0  0  0  0  0  0  0  0  0  0
    0.0227   -1.0610    0.0000 C   0  0  0  0  0  0  0  0  0  0  0  0
    0.0227   -1.8860    0.0000 C   0  0  0  0  0  0  0  0  0  0  0  0
   -0.6918   -2.2985    0.0000 C   0  0  0  0  0  0  0  0  0  0  0  0
   -1.4062   -2.7110    0.0000 C   0  0  0  0  0  0  0  0  0  0  0  0
   -0.2793   -3.0130    0.0000 C   0  0  0  0  0  0  0  0  0  0  0  0
   -1.1043   -1.5840    0.0000 C   0  0  0  0  0  0  0  0  0  0  0  0
    0.7372   -0.6485    0.0000 C   0  0  0  0  0  0  0  0  0  0  0  0
    0.7372    0.1765    0.0000 C   0  0  0  0  0  0  0  0  0  0  0  0
    0.7372    1.0015    0.0000 C   0  0  0  0  0  0  0  0  0  0  0  0
    1.5622    0.1765    0.0000 C   0  0  0  0  0  0  0  0  0  0  0  0
   -0.0878    0.1765    0.0000 C   0  0  0  0  0  0  0  0  0  0  0  0
   -0.2793    0.0660    0.0000 H   0  0  0  0  0  0  0  0  0  0  0  0
   -1.4062   -0.2360    0.0000 H   0  0  0  0  0  0  0  0  0  0  0  0
   -1.1043   -1.3630    0.0000 H   0  0  0  0  0  0  0  0  0  0  0  0
   -0.6918   -1.4735    0.0000 H   0  0  0  0  0  0  0  0  0  0  0  0
    0.4760   -2.5753    0.0000 H   0  0  0  0  0  0  0  0  0  0  0  0
    0.8463   -1.9340    0.0000 H   0  0  0  0  0  0  0  0  0  0  0  0
   -1.8187   -1.9965    0.0000 H   0  0  0  0  0  0  0  0  0  0  0  0
   -2.1207   -3.1235    0.0000 H   0  0  0  0  0  0  0  0  0  0  0  0
   -0.9937   -3.4255    0.0000 H   0  0  0  0  0  0  0  0  0  0  0  0
   -0.4925   -3.8099    0.0000 H   0  0  0  0  0  0  0  0  0  0  0  0
    0.1338   -3.7271    0.0000 H   0  0  0  0  0  0  0  0  0  0  0  0
    0.5179   -3.2255    0.0000 H   0  0  0  0  0  0  0  0  0  0  0  0
   -1.6346   -0.9520    0.0000 H   0  0  0  0  0  0  0  0  0  0  0  0
   -1.9167   -1.4408    0.0000 H   0  0  0  0  0  0  0  0  0  0  0  0
   -1.3178   -2.3809    0.0000 H   0  0  0  0  0  0  0  0  0  0  0  0
    1.1905   -1.3378    0.0000 H   0  0  0  0  0  0  0  0  0  0  0  0
    1.5608   -0.6965    0.0000 H   0  0  0  0  0  0  0  0  0  0  0  0
    1.5622    1.0015    0.0000 H   0  0  0  0  0  0  0  0  0  0  0  0
    0.7372    1.8265    0.0000 H   0  0  0  0  0  0  0  0  0  0  0  0
   -0.0878    1.0015    0.0000 H   0  0  0  0  0  0  0  0  0  0  0  0
    2.1448   -0.4076    0.0000 H   0  0  0  0  0  0  0  0  0  0  0  0
    2.3872    0.1759    0.0000 H   0  0  0  0  0  0  0  0  0  0  0  0
    2.1458    0.7596    0.0000 H   0  0  0  0  0  0  0  0  0  0  0  0
   -0.2311   -0.6360    0.0000 H   0  0  0  0  0  0  0  0  0  0  0  0
    0.4425   -0.4555    0.0000 H   0  0  0  0  0  0  0  0  0  0  0  0
   -0.8023    0.5890    0.0000 H   0  0  0  0  0  0  0  0  0  0  0  0
  1  2  1  0  0  0  0
  2  3  1  0  0  0  0
  3  4  1  0  0  0  0
  4  5  1  0  0  0  0
  4  6  1  0  0  0  0
  4  7  1  0  0  0  0
  2  8  1  0  0  0  0
  8  9  1  0  0  0  0
  9 10  1  0  0  0  0
  9 11  1  0  0  0  0
  9 12  1  0  0  0  0
  1 13  1  0  0  0  0
  1 14  1  0  0  0  0
  1 15  1  0  0  0  0
  2 16  1  0  0  0  0
  3 17  1  0  0  0  0
  3 18  1  0  0  0  0
  5 19  1  0  0  0  0
  5 20  1  0  0  0  0
  5 21  1  0  0  0  0
  6 22  1  0  0  0  0
  6 23  1  0  0  0  0
  6 24  1  0  0  0  0
  7 25  1  0  0  0  0
  7 26  1  0  0  0  0
  7 27  1  0  0  0  0
  8 28  1  0  0  0  0
  8 29  1  0  0  0  0
 10 30  1  0  0  0  0
 10 31  1  0  0  0  0
 10 32  1  0  0  0  0
 11 33  1  0  0  0  0
 11 34  1  0  0  0  0
 11 35  1  0  0  0  0
 12 36  1  0  0  0  0
 12 37  1  0  0  0  0
 12 38  1  0  0  0  0
M  END
> <id>
1256; 1257; 1261; 1259; 1255

> <casrn>
13475-82-6

> <smiles (First)>


> <Molecular weight>
170.33483886718753

> <name>
2,2,4,6,6-pentamethylheptane

> <Outcome>
0

> <Molecule (RDKit Mol) (InChI Code)>
InChI=1S/C12H26/c1-10(8-11(2,3)4)9-12(5,6)7/h10H,8-9H2,1-7H3

> <reference>
ECHA

> <molecule_form>
V; A

$$$$

  Mrv1812 01171911372D          

  6  5  0  0  0  0            999 V2000
    1.2375    0.7145    0.0000 C   0  0  0  0  0  0  0  0  0  0  0  0
    0.8250    0.0000    0.0000 C   0  0  0  0  0  0  0  0  0  0  0  0
    1.2375   -0.7145    0.0000 Cl  0  0  0  0  0  0  0  0  0  0  0  0
   -0.0000    0.0000    0.0000 Cl  0  0  0  0  0  0  0  0  0  0  0  0
    2.0625    0.7145    0.0000 H   0  0  0  0  0  0  0  0  0  0  0  0
    0.8250    1.4290    0.0000 H   0  0  0  0  0  0  0  0  0  0  0  0
  1  2  2  0  0  0  0
  2  3  1  0  0  0  0
  2  4  1  0  0  0  0
  1  5  1  0  0  0  0
  1  6  1  0  0  0  0
M  END
> <id>
892; 891; 894; 893

> <casrn>
75-35-4

> <smiles (First)>


> <Molecular weight>
96.94327545166016

> <name>
1,1-dichloroethene

> <Outcome>
1

> <Molecule (RDKit Mol) (InChI Code)>
InChI=1S/C2H2Cl2/c1-2(3)4/h1H2

> <reference>
ECHA

> <molecule_form>
V

$$$$

  Mrv1812 01171911372D          

  9  8  0  0  0  0            999 V2000
    2.0605   -0.7179    0.0000 O   0  0  0  0  0  0  0  0  0  0  0  0
    1.2355   -0.7179    0.0000 C   0  0  0  0  0  0  0  0  0  0  0  0
    0.8230   -1.4323    0.0000 O   0  0  0  0  0  0  0  0  0  0  0  0
    0.8230   -0.0034    0.0000 C   0  0  0  0  0  0  0  0  0  0  0  0
   -0.0020   -0.0034    0.0000 O   0  0  0  0  0  0  0  0  0  0  0  0
   -0.0020   -1.4323    0.0000 H   0  0  0  0  0  0  0  0  0  0  0  0
    1.5123    0.4500    0.0000 H   0  0  0  0  0  0  0  0  0  0  0  0
    0.8710    0.8202    0.0000 H   0  0  0  0  0  0  0  0  0  0  0  0
   -0.4145    0.7111    0.0000 H   0  0  0  0  0  0  0  0  0  0  0  0
  1  2  2  0  0  0  0
  2  3  1  0  0  0  0
  2  4  1  0  0  0  0
  4  5  1  0  0  0  0
  3  6  1  0  0  0  0
  4  7  1  0  0  0  0
  4  8  1  0  0  0  0
  5  9  1  0  0  0  0
M  END
> <id>
1484; 1482; 1483

> <casrn>
79-14-1

> <smiles (First)>


> <Molecular weight>
76.05136108398438

> <name>
2-hydroxyacetic acid

> <Outcome>
0

> <Molecule (RDKit Mol) (InChI Code)>
InChI=1S/C2H4O3/c3-1-2(4)5/h3H,1H2,(H,4,5)

> <reference>
ECHA

> <molecule_form>
A

$$$$

  Mrv1812 01171911372D          

 12 11  0  0  0  0            999 V2000
    2.4750   -0.8250    0.0000 N   0  0  0  0  0  0  0  0  0  0  0  0
    1.6500   -0.8250    0.0000 C   0  0  0  0  0  0  0  0  0  0  0  0
    0.8250   -0.8250    0.0000 C   0  0  0  0  0  0  0  0  0  0  0  0
    0.0000   -0.8250    0.0000 F   0  0  0  0  0  0  0  0  0  0  0  0
    0.8250   -1.6500    0.0000 C   0  0  0  0  0  0  0  0  0  0  0  0
    0.8250   -2.4750    0.0000 F   0  0  0  0  0  0  0  0  0  0  0  0
    0.0000   -1.6500    0.0000 F   0  0  0  0  0  0  0  0  0  0  0  0
    1.6500   -1.6500    0.0000 F   0  0  0  0  0  0  0  0  0  0  0  0
    0.8250   -0.0000    0.0000 C   0  0  0  0  0  0  0  0  0  0  0  0
    0.8250    0.8250    0.0000 F   0  0  0  0  0  0  0  0  0  0  0  0
    1.6500   -0.0000    0.0000 F   0  0  0  0  0  0  0  0  0  0  0  0
    0.0000   -0.0000    0.0000 F   0  0  0  0  0  0  0  0  0  0  0  0
  1  2  3  0  0  0  0
  2  3  1  0  0  0  0
  3  4  1  0  0  0  0
  3  5  1  0  0  0  0
  5  6  1  0  0  0  0
  5  7  1  0  0  0  0
  5  8  1  0  0  0  0
  3  9  1  0  0  0  0
  9 10  1  0  0  0  0
  9 11  1  0  0  0  0
  9 12  1  0  0  0  0
M  END
> <id>
731

> <casrn>
42532-60-5

> <smiles (First)>


> <Molecular weight>
195.038330078125

> <name>
-

> <Outcome>
0

> <Molecule (RDKit Mol) (InChI Code)>
InChI=1S/C4F7N/c5-2(1-12,3(6,7)8)4(9,10)11

> <reference>
ECHA

> <molecule_form>
G

$$$$

  Mrv1812 01171911372D          

 36 38  0  0  0  0            999 V2000
    1.7329   -4.1608    0.0000 C   0  0  0  0  0  0  0  0  0  0  0  0
    1.1809   -3.5477    0.0000 N   0  0  0  0  0  0  0  0  0  0  0  0
    1.4358   -2.7631    0.0000 C   0  0  0  0  0  0  0  0  0  0  0  0
    2.2428   -2.5915    0.0000 O   0  0  0  0  0  0  0  0  0  0  0  0
    0.8838   -2.1500    0.0000 C   0  0  0  0  0  0  0  0  0  0  0  0
    0.0768   -2.3215    0.0000 C   0  0  0  0  0  0  0  0  0  0  0  0
   -0.7302   -2.4930    0.0000 N   0  0  0  0  0  0  0  0  0  0  0  0
    1.1387   -1.3654    0.0000 C   0  0  0  0  0  0  0  0  0  0  0  0
    0.6538   -0.6979    0.0000 N   0  0  0  0  0  0  0  0  0  0  0  0
    1.1387   -0.0305    0.0000 C   0  0  0  0  0  0  0  0  0  0  0  0
    0.8838    0.7541    0.0000 C   0  0  0  0  0  0  0  0  0  0  0  0
    0.0768    0.9257    0.0000 C   0  0  0  0  0  0  0  0  0  0  0  0
   -0.4752    0.3126    0.0000 O   0  0  0  0  0  0  0  0  0  0  0  0
   -0.1781    1.7103    0.0000 N   0  0  0  0  0  0  0  0  0  0  0  0
    0.3739    2.3234    0.0000 C   0  0  0  0  0  0  0  0  0  0  0  0
    0.1190    3.1080    0.0000 O   0  0  0  0  0  0  0  0  0  0  0  0
    1.1809    2.1519    0.0000 N   0  0  0  0  0  0  0  0  0  0  0  0
    1.4358    1.3672    0.0000 C   0  0  0  0  0  0  0  0  0  0  0  0
    2.2428    1.1957    0.0000 O   0  0  0  0  0  0  0  0  0  0  0  0
    1.9233   -0.2854    0.0000 C   0  0  0  0  0  0  0  0  0  0  0  0
    2.6378    0.1271    0.0000 C   0  0  0  0  0  0  0  0  0  0  0  0
    3.3523   -0.2854    0.0000 C   0  0  0  0  0  0  0  0  0  0  0  0
    3.3523   -1.1104    0.0000 C   0  0  0  0  0  0  0  0  0  0  0  0
    2.6378   -1.5229    0.0000 C   0  0  0  0  0  0  0  0  0  0  0  0
    1.9233   -1.1104    0.0000 C   0  0  0  0  0  0  0  0  0  0  0  0
    1.1198   -4.7128    0.0000 H   0  0  0  0  0  0  0  0  0  0  0  0
    2.2849   -4.7739    0.0000 H   0  0  0  0  0  0  0  0  0  0  0  0
    2.3460   -3.6088    0.0000 H   0  0  0  0  0  0  0  0  0  0  0  0
    0.3739   -3.7192    0.0000 H   0  0  0  0  0  0  0  0  0  0  0  0
   -0.1712   -0.6979    0.0000 H   0  0  0  0  0  0  0  0  0  0  0  0
   -0.9851    1.8818    0.0000 H   0  0  0  0  0  0  0  0  0  0  0  0
    1.7329    2.7650    0.0000 H   0  0  0  0  0  0  0  0  0  0  0  0
    2.6378    0.9521    0.0000 H   0  0  0  0  0  0  0  0  0  0  0  0
    4.0668    0.1271    0.0000 H   0  0  0  0  0  0  0  0  0  0  0  0
    4.0668   -1.5229    0.0000 H   0  0  0  0  0  0  0  0  0  0  0  0
    2.6378   -2.3479    0.0000 H   0  0  0  0  0  0  0  0  0  0  0  0
  1  2  1  0  0  0  0
  2  3  1  0  0  0  0
  3  4  2  0  0  0  0
  5  3  1  4  0  0  0
  5  6  1  0  0  0  0
  6  7  3  0  0  0  0
  5  8  2  0  0  0  0
  8  9  1  0  0  0  0
 10  9  1  4  0  0  0
 10 11  2  0  0  0  0
 11 12  1  0  0  0  0
 12 13  2  0  0  0  0
 12 14  1  0  0  0  0
 14 15  1  0  0  0  0
 15 16  2  0  0  0  0
 15 17  1  0  0  0  0
 17 18  1  0  0  0  0
 11 18  1  0  0  0  0
 18 19  2  0  0  0  0
 10 20  1  0  0  0  0
 20 21  4  0  0  0  0
 21 22  4  0  0  0  0
 22 23  4  0  0  0  0
 23 24  4  0  0  0  0
 24 25  4  0  0  0  0
  8 25  1  0  0  0  0
 20 25  4  0  0  0  0
  1 26  1  0  0  0  0
  1 27  1  0  0  0  0
  1 28  1  0  0  0  0
  2 29  1  0  0  0  0
  9 30  1  0  0  0  0
 14 31  1  0  0  0  0
 17 32  1  0  0  0  0
 21 33  1  0  0  0  0
 22 34  1  0  0  0  0
 23 35  1  0  0  0  0
 24 36  1  0  0  0  0
M  END
> <id>
1447

> <casrn>
76199-85-4

> <smiles (First)>


> <Molecular weight>
337.2896423339844

> <name>
2-cyano-N-methyl-2-[(1E)-3-(2,4,6-trioxo-1,3-diazinan-5-ylidene)-2,3-dihydro-1H-isoindol-1-ylidene]acetamide

> <Outcome>
0

> <Molecule (RDKit Mol) (InChI Code)>
InChI=1S/C16H11N5O4/c1-18-13(22)9(6-17)11-7-4-2-3-5-8(7)12(19-11)10-14(23)20-16(25)21-15(10)24/h2-5,19H,1H3,(H,18,22)(H2,20,21,23,24,25)

> <reference>
ECHA

> <molecule_form>
A

$$$$

  Mrv1812 01171911372D          

 14 14  0  0  0  0            999 V2000
   -0.7145    2.8875    0.0000 O   0  0  0  0  0  0  0  0  0  0  0  0
   -0.0000    2.4750    0.0000 C   0  0  0  0  0  0  0  0  0  0  0  0
    0.7145    2.0625    0.0000 N   0  0  0  0  0  0  0  0  0  0  0  0
    0.7145    1.2375    0.0000 C   0  0  0  0  0  0  0  0  0  0  0  0
    1.4289    0.8250    0.0000 C   0  0  0  0  0  0  0  0  0  0  0  0
    1.4289   -0.0000    0.0000 C   0  0  0  0  0  0  0  0  0  0  0  0
    0.7145   -0.4125    0.0000 C   0  0  0  0  0  0  0  0  0  0  0  0
    0.7145   -1.2375    0.0000 Cl  0  0  0  0  0  0  0  0  0  0  0  0
   -0.0000    0.0000    0.0000 C   0  0  0  0  0  0  0  0  0  0  0  0
   -0.0000    0.8250    0.0000 C   0  0  0  0  0  0  0  0  0  0  0  0
    2.1434    1.2375    0.0000 H   0  0  0  0  0  0  0  0  0  0  0  0
    2.1434   -0.4125    0.0000 H   0  0  0  0  0  0  0  0  0  0  0  0
   -0.7145   -0.4125    0.0000 H   0  0  0  0  0  0  0  0  0  0  0  0
   -0.7145    1.2375    0.0000 H   0  0  0  0  0  0  0  0  0  0  0  0
  1  2  2  0  0  0  0
  2  3  2  0  0  0  0
  3  4  1  0  0  0  0
  4  5  4  0  0  0  0
  5  6  4  0  0  0  0
  6  7  4  0  0  0  0
  7  8  1  0  0  0  0
  7  9  4  0  0  0  0
  9 10  4  0  0  0  0
  4 10  4  0  0  0  0
  5 11  1  0  0  0  0
  6 12  1  0  0  0  0
  9 13  1  0  0  0  0
 10 14  1  0  0  0  0
M  END
> <id>
1148

> <casrn>
104-12-1

> <smiles (First)>


> <Molecular weight>
153.56576538085938

> <name>
1-chloro-4-isocyanatobenzene

> <Outcome>
1

> <Molecule (RDKit Mol) (InChI Code)>
InChI=1S/C7H4ClNO/c8-6-1-3-7(4-2-6)9-5-10/h1-4H

> <reference>
ECHA

> <molecule_form>
V

$$$$

  Mrv1812 01171911372D          

 22 21  0  0  0  0            999 V2000
   -0.2861    0.7031    0.0000 C   0  0  0  0  0  0  0  0  0  0  0  0
    0.4284    1.1156    0.0000 C   0  0  0  0  0  0  0  0  0  0  0  0
    1.1428    0.7031    0.0000 C   0  0  0  0  0  0  0  0  0  0  0  0
    1.1428   -0.1219    0.0000 C   0  0  0  0  0  0  0  0  0  0  0  0
    1.8573    1.1156    0.0000 C   0  0  0  0  0  0  0  0  0  0  0  0
    1.8573    1.9406    0.0000 N   0  0  0  0  0  0  0  0  0  0  0  0
    2.5718    0.7031    0.0000 C   0  0  0  0  0  0  0  0  0  0  0  0
    3.2862    1.1156    0.0000 O   0  0  0  0  0  0  0  0  0  0  0  0
    2.5718   -0.1219    0.0000 O   0  0  0  0  0  0  0  0  0  0  0  0
   -0.6986    1.4176    0.0000 H   0  0  0  0  0  0  0  0  0  0  0  0
   -1.0006    0.2906    0.0000 H   0  0  0  0  0  0  0  0  0  0  0  0
    0.1264   -0.0113    0.0000 H   0  0  0  0  0  0  0  0  0  0  0  0
    0.7986    1.8529    0.0000 H   0  0  0  0  0  0  0  0  0  0  0  0
    0.0581    1.8529    0.0000 H   0  0  0  0  0  0  0  0  0  0  0  0
    0.4284    0.2906    0.0000 H   0  0  0  0  0  0  0  0  0  0  0  0
    0.5595   -0.7052    0.0000 H   0  0  0  0  0  0  0  0  0  0  0  0
    1.5553   -0.8363    0.0000 H   0  0  0  0  0  0  0  0  0  0  0  0
    1.9397    0.0917    0.0000 H   0  0  0  0  0  0  0  0  0  0  0  0
    1.1428    1.5281    0.0000 H   0  0  0  0  0  0  0  0  0  0  0  0
    2.5945    2.3109    0.0000 H   0  0  0  0  0  0  0  0  0  0  0  0
    1.8093    2.7643    0.0000 H   0  0  0  0  0  0  0  0  0  0  0  0
    3.0528   -0.7921    0.0000 H   0  0  0  0  0  0  0  0  0  0  0  0
  1  2  1  0  0  0  0
  2  3  1  0  0  0  0
  3  4  1  0  0  0  0
  3  5  1  0  0  0  0
  5  6  1  0  0  0  0
  5  7  1  0  0  0  0
  7  8  2  0  0  0  0
  7  9  1  0  0  0  0
  1 10  1  0  0  0  0
  1 11  1  0  0  0  0
  1 12  1  0  0  0  0
  2 13  1  0  0  0  0
  2 14  1  0  0  0  0
  3 15  1  0  0  0  0
  4 16  1  0  0  0  0
  4 17  1  0  0  0  0
  4 18  1  0  0  0  0
  5 19  1  0  0  0  0
  6 20  1  0  0  0  0
  6 21  1  0  0  0  0
  9 22  1  0  0  0  0
M  END
> <id>
183

> <casrn>
73-32-5

> <smiles (First)>


> <Molecular weight>
131.1729278564453

> <name>
(2S)-2-amino-3-methylpentanoic acid

> <Outcome>
0

> <Molecule (RDKit Mol) (InChI Code)>
InChI=1S/C6H13NO2/c1-3-4(2)5(7)6(8)9/h4-5H,3,7H2,1-2H3,(H,8,9)

> <reference>
ECHA

> <molecule_form>
A

$$$$

  Mrv1812 01171911372D          

 43 44  0  0  0  0            999 V2000
   -0.7371   -2.0451    0.0000 C   0  0  0  0  0  0  0  0  0  0  0  0
   -1.4516   -2.4576    0.0000 O   0  0  0  0  0  0  0  0  0  0  0  0
   -1.4516   -3.2826    0.0000 C   0  0  0  0  0  0  0  0  0  0  0  0
   -0.7371   -3.6951    0.0000 C   0  0  0  0  0  0  0  0  0  0  0  0
   -0.7371   -4.5201    0.0000 C   0  0  0  0  0  0  0  0  0  0  0  0
   -0.0226   -4.9326    0.0000 O   0  0  0  0  0  0  0  0  0  0  0  0
   -0.0226   -5.7576    0.0000 C   0  0  0  0  0  0  0  0  0  0  0  0
   -1.4516   -4.9326    0.0000 N   0  0  0  0  0  0  0  0  0  0  0  0
   -2.1660   -4.5201    0.0000 C   0  0  0  0  0  0  0  0  0  0  0  0
   -2.8805   -4.9326    0.0000 N   0  0  0  0  0  0  0  0  0  0  0  0
   -2.8805   -5.7576    0.0000 C   0  0  0  0  0  0  0  0  0  0  0  0
   -2.1660   -6.1701    0.0000 O   0  0  0  0  0  0  0  0  0  0  0  0
   -3.5950   -6.1701    0.0000 N   0  0  0  0  0  0  0  0  0  0  0  0
   -3.5950   -6.9951    0.0000 S   0  0  0  0  0  0  0  0  0  0  0  0
   -4.4200   -6.9951    0.0000 O   0  0  0  0  0  0  0  0  0  0  0  0
   -2.7700   -6.9951    0.0000 O   0  0  0  0  0  0  0  0  0  0  0  0
   -3.5950   -7.8201    0.0000 C   0  0  0  0  0  0  0  0  0  0  0  0
   -2.8805   -8.2326    0.0000 N   0  0  0  0  0  0  0  0  0  0  0  0
   -2.8805   -9.0576    0.0000 C   0  0  0  0  0  0  0  0  0  0  0  0
   -3.5950   -9.4701    0.0000 C   0  0  0  0  0  0  0  0  0  0  0  0
   -4.3094   -9.0576    0.0000 C   0  0  0  0  0  0  0  0  0  0  0  0
   -4.3094   -8.2326    0.0000 C   0  0  0  0  0  0  0  0  0  0  0  0
   -5.0239   -7.8201    0.0000 O   0  0  0  0  0  0  0  0  0  0  0  0
   -5.7384   -8.2326    0.0000 C   0  0  0  0  0  0  0  0  0  0  0  0
   -5.7384   -9.0576    0.0000 C   0  0  0  0  0  0  0  0  0  0  0  0
   -5.7384   -9.8826    0.0000 F   0  0  0  0  0  0  0  0  0  0  0  0
   -6.5634   -9.0576    0.0000 F   0  0  0  0  0  0  0  0  0  0  0  0
   -4.9134   -9.0576    0.0000 F   0  0  0  0  0  0  0  0  0  0  0  0
   -2.1660   -3.6951    0.0000 N   0  0  0  0  0  0  0  0  0  0  0  0
   -0.3246   -2.7595    0.0000 H   0  0  0  0  0  0  0  0  0  0  0  0
   -0.0226   -1.6326    0.0000 H   0  0  0  0  0  0  0  0  0  0  0  0
   -1.1496   -1.3306    0.0000 H   0  0  0  0  0  0  0  0  0  0  0  0
   -0.0226   -3.2826    0.0000 H   0  0  0  0  0  0  0  0  0  0  0  0
   -0.8476   -5.7576    0.0000 H   0  0  0  0  0  0  0  0  0  0  0  0
   -0.0226   -6.5826    0.0000 H   0  0  0  0  0  0  0  0  0  0  0  0
    0.8024   -5.7576    0.0000 H   0  0  0  0  0  0  0  0  0  0  0  0
   -3.5950   -4.5201    0.0000 H   0  0  0  0  0  0  0  0  0  0  0  0
   -4.3094   -5.7576    0.0000 H   0  0  0  0  0  0  0  0  0  0  0  0
   -2.1660   -9.4701    0.0000 H   0  0  0  0  0  0  0  0  0  0  0  0
   -3.5950  -10.2951    0.0000 H   0  0  0  0  0  0  0  0  0  0  0  0
   -4.5230   -9.8545    0.0000 H   0  0  0  0  0  0  0  0  0  0  0  0
   -6.1917   -7.5433    0.0000 H   0  0  0  0  0  0  0  0  0  0  0  0
   -6.5620   -8.1846    0.0000 H   0  0  0  0  0  0  0  0  0  0  0  0
  1  2  1  0  0  0  0
  2  3  1  0  0  0  0
  3  4  4  0  0  0  0
  4  5  4  0  0  0  0
  5  6  1  0  0  0  0
  6  7  1  0  0  0  0
  5  8  4  0  0  0  0
  8  9  4  0  0  0  0
  9 10  1  0  0  0  0
 10 11  1  0  0  0  0
 11 12  2  0  0  0  0
 11 13  1  0  0  0  0
 13 14  1  0  0  0  0
 14 15  2  0  0  0  0
 14 16  2  0  0  0  0
 14 17  1  0  0  0  0
 17 18  4  0  0  0  0
 18 19  4  0  0  0  0
 19 20  4  0  0  0  0
 20 21  4  0  0  0  0
 21 22  4  0  0  0  0
 17 22  4  0  0  0  0
 22 23  1  0  0  0  0
 23 24  1  0  0  0  0
 24 25  1  0  0  0  0
 25 26  1  0  0  0  0
 25 27  1  0  0  0  0
 25 28  1  0  0  0  0
  9 29  4  0  0  0  0
  3 29  4  0  0  0  0
  1 30  1  0  0  0  0
  1 31  1  0  0  0  0
  1 32  1  0  0  0  0
  4 33  1  0  0  0  0
  7 34  1  0  0  0  0
  7 35  1  0  0  0  0
  7 36  1  0  0  0  0
 10 37  1  0  0  0  0
 13 38  1  0  0  0  0
 19 39  1  0  0  0  0
 20 40  1  0  0  0  0
 21 41  1  0  0  0  0
 24 42  1  0  0  0  0
 24 43  1  0  0  0  0
M  END
> <id>
501

> <casrn>
199119-58-9

> <smiles (First)>


> <Molecular weight>
436.3431396484375

> <name>
-

> <Outcome>
0

> <Molecule (RDKit Mol) (InChI Code)>
InChI=1S/C14H14F3N5O6S/c1-26-9-6-10(27-2)20-12(19-9)21-13(23)22-29(24,25)11-8(4-3-5-18-11)28-7-14(15,16)17/h3-6H,7H2,1-2H3,(H2,19,20,21,22,23)

> <reference>
ECHA

> <molecule_form>
A

$$$$

  Mrv1812 01171911372D          

 12 12  0  0  0  0            999 V2000
    0.7145    2.0625    0.0000 F   0  0  0  0  0  0  0  0  0  0  0  0
    0.7145    1.2375    0.0000 C   0  0  0  0  0  0  0  0  0  0  0  0
    1.4289    0.8250    0.0000 C   0  0  0  0  0  0  0  0  0  0  0  0
    1.4289   -0.0000    0.0000 C   0  0  0  0  0  0  0  0  0  0  0  0
    0.7145   -0.4125    0.0000 C   0  0  0  0  0  0  0  0  0  0  0  0
    0.7145   -1.2375    0.0000 Br  0  0  0  0  0  0  0  0  0  0  0  0
   -0.0000    0.0000    0.0000 C   0  0  0  0  0  0  0  0  0  0  0  0
   -0.0000    0.8250    0.0000 C   0  0  0  0  0  0  0  0  0  0  0  0
    2.1434    1.2375    0.0000 H   0  0  0  0  0  0  0  0  0  0  0  0
    2.1434   -0.4125    0.0000 H   0  0  0  0  0  0  0  0  0  0  0  0
   -0.7145   -0.4125    0.0000 H   0  0  0  0  0  0  0  0  0  0  0  0
   -0.7145    1.2375    0.0000 H   0  0  0  0  0  0  0  0  0  0  0  0
  1  2  1  0  0  0  0
  2  3  4  0  0  0  0
  3  4  4  0  0  0  0
  4  5  4  0  0  0  0
  5  6  1  0  0  0  0
  5  7  4  0  0  0  0
  7  8  4  0  0  0  0
  2  8  4  0  0  0  0
  3  9  1  0  0  0  0
  4 10  1  0  0  0  0
  7 11  1  0  0  0  0
  8 12  1  0  0  0  0
M  END
> <id>
1115

> <casrn>
460-00-4

> <smiles (First)>


> <Molecular weight>
174.9983673095703

> <name>
1-bromo-4-fluorobenzene

> <Outcome>
1

> <Molecule (RDKit Mol) (InChI Code)>
InChI=1S/C6H4BrF/c7-5-1-3-6(8)4-2-5/h1-4H

> <reference>
ECHA

> <molecule_form>
V

$$$$

  Mrv1812 01171911372D          

 38 37  0  0  0  0            999 V2000
    2.1912    3.2780    0.0000 C   0  0  0  0  0  0  0  0  0  0  0  0
    1.4767    2.8655    0.0000 C   0  0  0  0  0  0  0  0  0  0  0  0
    1.4767    2.0405    0.0000 O   0  0  0  0  0  0  0  0  0  0  0  0
    0.7622    1.6280    0.0000 Si  0  0  0  0  0  0  0  0  0  0  0  0
    0.0478    1.2155    0.0000 C   0  0  0  0  0  0  0  0  0  0  0  0
   -0.6667    1.6280    0.0000 C   0  0  0  0  0  0  0  0  0  0  0  0
   -1.3812    1.2155    0.0000 C   0  0  0  0  0  0  0  0  0  0  0  0
   -0.6667    2.4530    0.0000 C   0  0  0  0  0  0  0  0  0  0  0  0
    0.3497    2.3424    0.0000 O   0  0  0  0  0  0  0  0  0  0  0  0
    0.7622    3.0569    0.0000 C   0  0  0  0  0  0  0  0  0  0  0  0
    0.3497    3.7714    0.0000 C   0  0  0  0  0  0  0  0  0  0  0  0
    1.1747    0.9135    0.0000 O   0  0  0  0  0  0  0  0  0  0  0  0
    0.7622    0.1990    0.0000 C   0  0  0  0  0  0  0  0  0  0  0  0
   -0.0628    0.1990    0.0000 C   0  0  0  0  0  0  0  0  0  0  0  0
    2.6037    2.5635    0.0000 H   0  0  0  0  0  0  0  0  0  0  0  0
    2.9056    3.6905    0.0000 H   0  0  0  0  0  0  0  0  0  0  0  0
    1.7787    3.9924    0.0000 H   0  0  0  0  0  0  0  0  0  0  0  0
    1.3690    3.6834    0.0000 H   0  0  0  0  0  0  0  0  0  0  0  0
    2.1912    2.4530    0.0000 H   0  0  0  0  0  0  0  0  0  0  0  0
   -0.3225    0.4782    0.0000 H   0  0  0  0  0  0  0  0  0  0  0  0
    0.4180    0.4782    0.0000 H   0  0  0  0  0  0  0  0  0  0  0  0
   -0.6667    0.8030    0.0000 H   0  0  0  0  0  0  0  0  0  0  0  0
   -1.5947    2.0123    0.0000 H   0  0  0  0  0  0  0  0  0  0  0  0
   -2.2062    1.2155    0.0000 H   0  0  0  0  0  0  0  0  0  0  0  0
   -1.5947    0.4186    0.0000 H   0  0  0  0  0  0  0  0  0  0  0  0
    0.1583    2.4530    0.0000 H   0  0  0  0  0  0  0  0  0  0  0  0
   -0.6667    3.2780    0.0000 H   0  0  0  0  0  0  0  0  0  0  0  0
   -1.4917    2.4530    0.0000 H   0  0  0  0  0  0  0  0  0  0  0  0
    1.0779    2.2947    0.0000 H   0  0  0  0  0  0  0  0  0  0  0  0
   -0.0557    3.1646    0.0000 H   0  0  0  0  0  0  0  0  0  0  0  0
    1.1500    3.9718    0.0000 H   0  0  0  0  0  0  0  0  0  0  0  0
    0.3767    4.5959    0.0000 H   0  0  0  0  0  0  0  0  0  0  0  0
   -0.4357    4.0237    0.0000 H   0  0  0  0  0  0  0  0  0  0  0  0
    0.8102   -0.6246    0.0000 H   0  0  0  0  0  0  0  0  0  0  0  0
    1.4515   -0.2543    0.0000 H   0  0  0  0  0  0  0  0  0  0  0  0
   -0.8719    0.0381    0.0000 H   0  0  0  0  0  0  0  0  0  0  0  0
   -0.3785   -0.5632    0.0000 H   0  0  0  0  0  0  0  0  0  0  0  0
    0.3956   -0.4869    0.0000 H   0  0  0  0  0  0  0  0  0  0  0  0
  1  2  1  0  0  0  0
  2  3  1  0  0  0  0
  3  4  1  0  0  0  0
  4  5  1  0  0  0  0
  5  6  1  0  0  0  0
  6  7  1  0  0  0  0
  6  8  1  0  0  0  0
  4  9  1  0  0  0  0
  9 10  1  0  0  0  0
 10 11  1  0  0  0  0
  4 12  1  0  0  0  0
 12 13  1  0  0  0  0
 13 14  1  0  0  0  0
  1 15  1  0  0  0  0
  1 16  1  0  0  0  0
  1 17  1  0  0  0  0
  2 18  1  0  0  0  0
  2 19  1  0  0  0  0
  5 20  1  0  0  0  0
  5 21  1  0  0  0  0
  6 22  1  0  0  0  0
  7 23  1  0  0  0  0
  7 24  1  0  0  0  0
  7 25  1  0  0  0  0
  8 26  1  0  0  0  0
  8 27  1  0  0  0  0
  8 28  1  0  0  0  0
 10 29  1  0  0  0  0
 10 30  1  0  0  0  0
 11 31  1  0  0  0  0
 11 32  1  0  0  0  0
 11 33  1  0  0  0  0
 13 34  1  0  0  0  0
 13 35  1  0  0  0  0
 14 36  1  0  0  0  0
 14 37  1  0  0  0  0
 14 38  1  0  0  0  0
M  END
> <id>
4060

> <casrn>
17980-47-1

> <smiles (First)>


> <Molecular weight>
220.3812713623047

> <name>
triethoxy(2-methylpropyl)silane

> <Outcome>
0

> <Molecule (RDKit Mol) (InChI Code)>
InChI=1S/C10H24O3Si/c1-6-11-14(12-7-2,13-8-3)9-10(4)5/h10H,6-9H2,1-5H3

> <reference>
ECHA

> <molecule_form>
A

$$$$

  Mrv1812 01171911372D          

 28 28  0  0  0  0            999 V2000
    0.0038    2.4180    0.0000 C   0  0  0  0  0  0  0  0  0  0  0  0
    0.7183    2.0055    0.0000 O   0  0  0  0  0  0  0  0  0  0  0  0
    0.7183    1.1805    0.0000 C   0  0  0  0  0  0  0  0  0  0  0  0
    1.4327    0.7680    0.0000 C   0  0  0  0  0  0  0  0  0  0  0  0
    1.4327   -0.0570    0.0000 C   0  0  0  0  0  0  0  0  0  0  0  0
    0.7183   -0.4695    0.0000 C   0  0  0  0  0  0  0  0  0  0  0  0
    0.7183   -1.2945    0.0000 C   0  0  0  0  0  0  0  0  0  0  0  0
    0.0038   -1.7070    0.0000 C   0  0  0  0  0  0  0  0  0  0  0  0
    0.0038   -2.5320    0.0000 N   0  0  0  0  0  0  0  0  0  0  0  0
    0.0038   -0.0570    0.0000 C   0  0  0  0  0  0  0  0  0  0  0  0
    0.0038    0.7680    0.0000 C   0  0  0  0  0  0  0  0  0  0  0  0
   -0.7107    1.1805    0.0000 O   0  0  0  0  0  0  0  0  0  0  0  0
   -0.7107    2.0055    0.0000 C   0  0  0  0  0  0  0  0  0  0  0  0
    0.7183    2.8305    0.0000 H   0  0  0  0  0  0  0  0  0  0  0  0
    0.0038    3.2430    0.0000 H   0  0  0  0  0  0  0  0  0  0  0  0
   -0.7107    2.8305    0.0000 H   0  0  0  0  0  0  0  0  0  0  0  0
    2.1472    1.1805    0.0000 H   0  0  0  0  0  0  0  0  0  0  0  0
    2.1472   -0.4695    0.0000 H   0  0  0  0  0  0  0  0  0  0  0  0
    1.1716   -1.9838    0.0000 H   0  0  0  0  0  0  0  0  0  0  0  0
    1.5419   -1.3425    0.0000 H   0  0  0  0  0  0  0  0  0  0  0  0
   -0.4496   -1.0177    0.0000 H   0  0  0  0  0  0  0  0  0  0  0  0
   -0.8198   -1.6590    0.0000 H   0  0  0  0  0  0  0  0  0  0  0  0
   -0.7107   -2.9445    0.0000 H   0  0  0  0  0  0  0  0  0  0  0  0
    0.7183   -2.9445    0.0000 H   0  0  0  0  0  0  0  0  0  0  0  0
   -0.7107   -0.4695    0.0000 H   0  0  0  0  0  0  0  0  0  0  0  0
   -1.4859    2.2877    0.0000 H   0  0  0  0  0  0  0  0  0  0  0  0
   -1.4859    1.7233    0.0000 H   0  0  0  0  0  0  0  0  0  0  0  0
    0.0038    1.5930    0.0000 H   0  0  0  0  0  0  0  0  0  0  0  0
  1  2  1  0  0  0  0
  2  3  1  0  0  0  0
  3  4  4  0  0  0  0
  4  5  4  0  0  0  0
  5  6  4  0  0  0  0
  6  7  1  0  0  0  0
  7  8  1  0  0  0  0
  8  9  1  0  0  0  0
  6 10  4  0  0  0  0
 10 11  4  0  0  0  0
  3 11  4  0  0  0  0
 11 12  1  0  0  0  0
 12 13  1  0  0  0  0
  1 14  1  0  0  0  0
  1 15  1  0  0  0  0
  1 16  1  0  0  0  0
  4 17  1  0  0  0  0
  5 18  1  0  0  0  0
  7 19  1  0  0  0  0
  7 20  1  0  0  0  0
  8 21  1  0  0  0  0
  8 22  1  0  0  0  0
  9 23  1  0  0  0  0
  9 24  1  0  0  0  0
 10 25  1  0  0  0  0
 13 26  1  0  0  0  0
 13 27  1  0  0  0  0
 13 28  1  0  0  0  0
M  END
> <id>
1330

> <casrn>
120-20-7

> <smiles (First)>


> <Molecular weight>
181.23159790039062

> <name>
2-(3,4-dimethoxyphenyl)ethan-1-amine

> <Outcome>
0

> <Molecule (RDKit Mol) (InChI Code)>
InChI=1S/C10H15NO2/c1-12-9-4-3-8(5-6-11)7-10(9)13-2/h3-4,7H,5-6,11H2,1-2H3

> <reference>
ECHA

> <molecule_form>
A

$$$$

  Mrv1812 01171911372D          

 81 80  0  0  0  0            999 V2000
   -1.8860    2.1461    0.0000 C   0  0  0  0  0  0  0  0  0  0  0  0
   -2.2985    1.4317    0.0000 C   0  0  0  0  0  0  0  0  0  0  0  0
   -1.8860    0.7172    0.0000 C   0  0  0  0  0  0  0  0  0  0  0  0
   -1.0610    0.7172    0.0000 C   0  0  0  0  0  0  0  0  0  0  0  0
   -0.6485    0.0027    0.0000 Sn  0  0  0  0  0  0  0  0  0  0  0  0
   -1.3629   -0.4098    0.0000 C   0  0  0  0  0  0  0  0  0  0  0  0
   -2.0774    0.0027    0.0000 C   0  0  0  0  0  0  0  0  0  0  0  0
   -2.7919   -0.4098    0.0000 C   0  0  0  0  0  0  0  0  0  0  0  0
   -3.5063    0.0027    0.0000 C   0  0  0  0  0  0  0  0  0  0  0  0
    0.0660    0.4152    0.0000 C   0  0  0  0  0  0  0  0  0  0  0  0
    0.7805    0.0027    0.0000 C   0  0  0  0  0  0  0  0  0  0  0  0
    1.4949    0.4152    0.0000 C   0  0  0  0  0  0  0  0  0  0  0  0
    2.2094    0.0027    0.0000 C   0  0  0  0  0  0  0  0  0  0  0  0
   -0.2360   -0.7117    0.0000 O   0  0  0  0  0  0  0  0  0  0  0  0
   -0.6485   -1.4262    0.0000 Sn  0  0  0  0  0  0  0  0  0  0  0  0
   -1.0610   -2.1407    0.0000 C   0  0  0  0  0  0  0  0  0  0  0  0
   -0.6485   -2.8551    0.0000 C   0  0  0  0  0  0  0  0  0  0  0  0
   -1.0610   -3.5696    0.0000 C   0  0  0  0  0  0  0  0  0  0  0  0
   -0.6485   -4.2841    0.0000 C   0  0  0  0  0  0  0  0  0  0  0  0
   -1.3629   -1.0137    0.0000 C   0  0  0  0  0  0  0  0  0  0  0  0
   -2.0774   -1.4262    0.0000 C   0  0  0  0  0  0  0  0  0  0  0  0
   -2.7919   -1.0137    0.0000 C   0  0  0  0  0  0  0  0  0  0  0  0
   -3.5063   -1.4262    0.0000 C   0  0  0  0  0  0  0  0  0  0  0  0
    0.0660   -1.8387    0.0000 C   0  0  0  0  0  0  0  0  0  0  0  0
    0.0660   -2.6637    0.0000 C   0  0  0  0  0  0  0  0  0  0  0  0
    0.7805   -3.0762    0.0000 C   0  0  0  0  0  0  0  0  0  0  0  0
    0.7805   -3.9012    0.0000 C   0  0  0  0  0  0  0  0  0  0  0  0
   -1.1715    1.7336    0.0000 H   0  0  0  0  0  0  0  0  0  0  0  0
   -1.4735    2.8606    0.0000 H   0  0  0  0  0  0  0  0  0  0  0  0
   -2.6004    2.5586    0.0000 H   0  0  0  0  0  0  0  0  0  0  0  0
   -3.0357    1.8019    0.0000 H   0  0  0  0  0  0  0  0  0  0  0  0
   -3.0357    1.0614    0.0000 H   0  0  0  0  0  0  0  0  0  0  0  0
   -2.7039    0.6095    0.0000 H   0  0  0  0  0  0  0  0  0  0  0  0
   -1.4735    1.4317    0.0000 H   0  0  0  0  0  0  0  0  0  0  0  0
   -0.2485    0.8605    0.0000 H   0  0  0  0  0  0  0  0  0  0  0  0
   -0.5307    1.3492    0.0000 H   0  0  0  0  0  0  0  0  0  0  0  0
   -0.6485   -0.8223    0.0000 H   0  0  0  0  0  0  0  0  0  0  0  0
   -2.0774   -0.8223    0.0000 H   0  0  0  0  0  0  0  0  0  0  0  0
   -1.2555    0.0746    0.0000 H   0  0  0  0  0  0  0  0  0  0  0  0
   -1.4454    0.5330    0.0000 H   0  0  0  0  0  0  0  0  0  0  0  0
   -3.5063   -0.8223    0.0000 H   0  0  0  0  0  0  0  0  0  0  0  0
   -2.7919    0.4152    0.0000 H   0  0  0  0  0  0  0  0  0  0  0  0
   -3.5063    0.8277    0.0000 H   0  0  0  0  0  0  0  0  0  0  0  0
   -4.2208    0.4152    0.0000 H   0  0  0  0  0  0  0  0  0  0  0  0
   -4.2208   -0.4098    0.0000 H   0  0  0  0  0  0  0  0  0  0  0  0
    0.6221    1.0246    0.0000 H   0  0  0  0  0  0  0  0  0  0  0  0
    0.0660   -0.4098    0.0000 H   0  0  0  0  0  0  0  0  0  0  0  0
    0.9237   -0.8097    0.0000 H   0  0  0  0  0  0  0  0  0  0  0  0
    1.4125   -0.5276    0.0000 H   0  0  0  0  0  0  0  0  0  0  0  0
    1.8652    1.1525    0.0000 H   0  0  0  0  0  0  0  0  0  0  0  0
    1.1247    1.1525    0.0000 H   0  0  0  0  0  0  0  0  0  0  0  0
    2.4607   -0.7831    0.0000 H   0  0  0  0  0  0  0  0  0  0  0  0
    3.0340    0.0289    0.0000 H   0  0  0  0  0  0  0  0  0  0  0  0
    2.4103    0.8029    0.0000 H   0  0  0  0  0  0  0  0  0  0  0  0
   -1.7982   -1.7704    0.0000 H   0  0  0  0  0  0  0  0  0  0  0  0
   -1.7982   -2.5109    0.0000 H   0  0  0  0  0  0  0  0  0  0  0  0
   -0.1462   -3.5097    0.0000 H   0  0  0  0  0  0  0  0  0  0  0  0
   -0.3328   -2.0929    0.0000 H   0  0  0  0  0  0  0  0  0  0  0  0
   -1.7982   -3.1994    0.0000 H   0  0  0  0  0  0  0  0  0  0  0  0
   -1.7982   -3.9399    0.0000 H   0  0  0  0  0  0  0  0  0  0  0  0
   -1.4480   -4.4873    0.0000 H   0  0  0  0  0  0  0  0  0  0  0  0
   -0.6698   -5.1088    0.0000 H   0  0  0  0  0  0  0  0  0  0  0  0
    0.1395   -4.5284    0.0000 H   0  0  0  0  0  0  0  0  0  0  0  0
   -1.3621   -1.8387    0.0000 H   0  0  0  0  0  0  0  0  0  0  0  0
   -0.9501   -1.7280    0.0000 H   0  0  0  0  0  0  0  0  0  0  0  0
   -2.8367   -1.7488    0.0000 H   0  0  0  0  0  0  0  0  0  0  0  0
   -2.2766   -2.2268    0.0000 H   0  0  0  0  0  0  0  0  0  0  0  0
   -2.1599   -0.4834    0.0000 H   0  0  0  0  0  0  0  0  0  0  0  0
   -2.4432   -0.2660    0.0000 H   0  0  0  0  0  0  0  0  0  0  0  0
   -4.2284   -1.0271    0.0000 H   0  0  0  0  0  0  0  0  0  0  0  0
   -4.2049   -1.8651    0.0000 H   0  0  0  0  0  0  0  0  0  0  0  0
   -3.4602   -2.2499    0.0000 H   0  0  0  0  0  0  0  0  0  0  0  0
    0.8896   -1.7907    0.0000 H   0  0  0  0  0  0  0  0  0  0  0  0
    0.5194   -1.1494    0.0000 H   0  0  0  0  0  0  0  0  0  0  0  0
    0.8785   -2.5204    0.0000 H   0  0  0  0  0  0  0  0  0  0  0  0
    0.5963   -2.0317    0.0000 H   0  0  0  0  0  0  0  0  0  0  0  0
    1.6023   -3.1481    0.0000 H   0  0  0  0  0  0  0  0  0  0  0  0
    0.0660   -3.4887    0.0000 H   0  0  0  0  0  0  0  0  0  0  0  0
    0.9348   -4.7116    0.0000 H   0  0  0  0  0  0  0  0  0  0  0  0
    1.5410   -4.2211    0.0000 H   0  0  0  0  0  0  0  0  0  0  0  0
    1.4677   -3.4447    0.0000 H   0  0  0  0  0  0  0  0  0  0  0  0
  1  2  1  0  0  0  0
  2  3  1  0  0  0  0
  3  4  1  0  0  0  0
  4  5  1  0  0  0  0
  5  6  1  0  0  0  0
  6  7  1  0  0  0  0
  7  8  1  0  0  0  0
  8  9  1  0  0  0  0
  5 10  1  0  0  0  0
 10 11  1  0  0  0  0
 11 12  1  0  0  0  0
 12 13  1  0  0  0  0
  5 14  1  0  0  0  0
 14 15  1  0  0  0  0
 15 16  1  0  0  0  0
 16 17  1  0  0  0  0
 17 18  1  0  0  0  0
 18 19  1  0  0  0  0
 15 20  1  0  0  0  0
 20 21  1  0  0  0  0
 21 22  1  0  0  0  0
 22 23  1  0  0  0  0
 15 24  1  0  0  0  0
 24 25  1  0  0  0  0
 25 26  1  0  0  0  0
 26 27  1  0  0  0  0
  1 28  1  0  0  0  0
  1 29  1  0  0  0  0
  1 30  1  0  0  0  0
  2 31  1  0  0  0  0
  2 32  1  0  0  0  0
  3 33  1  0  0  0  0
  3 34  1  0  0  0  0
  4 35  1  0  0  0  0
  4 36  1  0  0  0  0
  6 37  1  0  0  0  0
  6 38  1  0  0  0  0
  7 39  1  0  0  0  0
  7 40  1  0  0  0  0
  8 41  1  0  0  0  0
  8 42  1  0  0  0  0
  9 43  1  0  0  0  0
  9 44  1  0  0  0  0
  9 45  1  0  0  0  0
 10 46  1  0  0  0  0
 10 47  1  0  0  0  0
 11 48  1  0  0  0  0
 11 49  1  0  0  0  0
 12 50  1  0  0  0  0
 12 51  1  0  0  0  0
 13 52  1  0  0  0  0
 13 53  1  0  0  0  0
 13 54  1  0  0  0  0
 16 55  1  0  0  0  0
 16 56  1  0  0  0  0
 17 57  1  0  0  0  0
 17 58  1  0  0  0  0
 18 59  1  0  0  0  0
 18 60  1  0  0  0  0
 19 61  1  0  0  0  0
 19 62  1  0  0  0  0
 19 63  1  0  0  0  0
 20 64  1  0  0  0  0
 20 65  1  0  0  0  0
 21 66  1  0  0  0  0
 21 67  1  0  0  0  0
 22 68  1  0  0  0  0
 22 69  1  0  0  0  0
 23 70  1  0  0  0  0
 23 71  1  0  0  0  0
 23 72  1  0  0  0  0
 24 73  1  0  0  0  0
 24 74  1  0  0  0  0
 25 75  1  0  0  0  0
 25 76  1  0  0  0  0
 26 77  1  0  0  0  0
 26 78  1  0  0  0  0
 27 79  1  0  0  0  0
 27 80  1  0  0  0  0
 27 81  1  0  0  0  0
M  END
> <id>
4014

> <casrn>
56-35-9

> <smiles (First)>


> <Molecular weight>
596.10498046875

> <name>
tributyl[(tributylstannyl)oxy]stannane

> <Outcome>
1

> <Molecule (RDKit Mol) (InChI Code)>
InChI=1S/6C4H9.O.2Sn/c6*1-3-4-2;;;/h6*1,3-4H2,2H3;;;

> <reference>
ECHA

> <molecule_form>
A

$$$$

  Mrv1812 01171911372D          

 11 10  0  0  0  0            999 V2000
    2.0641   -0.7117    0.0000 C   0  0  0  0  0  0  0  0  0  0  0  0
    1.2391   -0.7117    0.0000 C   0  0  0  0  0  0  0  0  0  0  0  0
    0.8266    0.0028    0.0000 O   0  0  0  0  0  0  0  0  0  0  0  0
    0.0016    0.0028    0.0000 N   0  0  0  0  0  0  0  0  0  0  0  0
    2.0641   -1.5367    0.0000 H   0  0  0  0  0  0  0  0  0  0  0  0
    2.8891   -0.7117    0.0000 H   0  0  0  0  0  0  0  0  0  0  0  0
    2.0641    0.1133    0.0000 H   0  0  0  0  0  0  0  0  0  0  0  0
    0.5498   -1.1650    0.0000 H   0  0  0  0  0  0  0  0  0  0  0  0
    1.1911   -1.5353    0.0000 H   0  0  0  0  0  0  0  0  0  0  0  0
   -0.4109    0.7172    0.0000 H   0  0  0  0  0  0  0  0  0  0  0  0
   -0.4109   -0.7117    0.0000 H   0  0  0  0  0  0  0  0  0  0  0  0
  1  2  1  0  0  0  0
  2  3  1  0  0  0  0
  3  4  1  0  0  0  0
  1  5  1  0  0  0  0
  1  6  1  0  0  0  0
  1  7  1  0  0  0  0
  2  8  1  0  0  0  0
  2  9  1  0  0  0  0
  4 10  1  0  0  0  0
  4 11  1  0  0  0  0
M  END
> <id>
2511

> <casrn>
624-86-2

> <smiles (First)>


> <Molecular weight>
61.08308029174805

> <name>
O-ethylhydroxylamine

> <Outcome>
1

> <Molecule (RDKit Mol) (InChI Code)>
InChI=1S/C2H7NO/c1-2-4-3/h2-3H2,1H3

> <reference>
ECHA

> <molecule_form>
A

$$$$

  Mrv1812 01171911372D          

 24 24  0  0  0  0            999 V2000
    0.0234    2.4277    0.0000 C   0  0  0  0  0  0  0  0  0  0  0  0
    0.7378    2.0152    0.0000 O   0  0  0  0  0  0  0  0  0  0  0  0
    0.7378    1.1902    0.0000 C   0  0  0  0  0  0  0  0  0  0  0  0
    1.4523    0.7777    0.0000 C   0  0  0  0  0  0  0  0  0  0  0  0
    1.4523   -0.0473    0.0000 C   0  0  0  0  0  0  0  0  0  0  0  0
    0.7378   -0.4598    0.0000 C   0  0  0  0  0  0  0  0  0  0  0  0
    0.7378   -1.2848    0.0000 C   0  0  0  0  0  0  0  0  0  0  0  0
    1.4523   -1.6973    0.0000 C   0  0  0  0  0  0  0  0  0  0  0  0
    2.1668   -2.1098    0.0000 N   0  0  0  0  0  0  0  0  0  0  0  0
    0.0234   -0.0473    0.0000 C   0  0  0  0  0  0  0  0  0  0  0  0
    0.0234    0.7777    0.0000 C   0  0  0  0  0  0  0  0  0  0  0  0
   -0.6911    1.1902    0.0000 O   0  0  0  0  0  0  0  0  0  0  0  0
   -0.6911    2.0152    0.0000 C   0  0  0  0  0  0  0  0  0  0  0  0
    0.7378    2.8402    0.0000 H   0  0  0  0  0  0  0  0  0  0  0  0
    0.0234    3.2527    0.0000 H   0  0  0  0  0  0  0  0  0  0  0  0
   -0.6911    2.8402    0.0000 H   0  0  0  0  0  0  0  0  0  0  0  0
    2.1668    1.1902    0.0000 H   0  0  0  0  0  0  0  0  0  0  0  0
    2.1668   -0.4598    0.0000 H   0  0  0  0  0  0  0  0  0  0  0  0
   -0.0858   -1.3327    0.0000 H   0  0  0  0  0  0  0  0  0  0  0  0
    0.2845   -1.9740    0.0000 H   0  0  0  0  0  0  0  0  0  0  0  0
   -0.6911   -0.4598    0.0000 H   0  0  0  0  0  0  0  0  0  0  0  0
   -1.4664    2.2974    0.0000 H   0  0  0  0  0  0  0  0  0  0  0  0
   -1.4664    1.7331    0.0000 H   0  0  0  0  0  0  0  0  0  0  0  0
    0.0234    1.6027    0.0000 H   0  0  0  0  0  0  0  0  0  0  0  0
  1  2  1  0  0  0  0
  2  3  1  0  0  0  0
  3  4  4  0  0  0  0
  4  5  4  0  0  0  0
  5  6  4  0  0  0  0
  6  7  1  0  0  0  0
  7  8  1  0  0  0  0
  8  9  3  0  0  0  0
  6 10  4  0  0  0  0
 10 11  4  0  0  0  0
  3 11  4  0  0  0  0
 11 12  1  0  0  0  0
 12 13  1  0  0  0  0
  1 14  1  0  0  0  0
  1 15  1  0  0  0  0
  1 16  1  0  0  0  0
  4 17  1  0  0  0  0
  5 18  1  0  0  0  0
  7 19  1  0  0  0  0
  7 20  1  0  0  0  0
 10 21  1  0  0  0  0
 13 22  1  0  0  0  0
 13 23  1  0  0  0  0
 13 24  1  0  0  0  0
M  END
> <id>
185; 1327

> <casrn>
93-17-4

> <smiles (First)>


> <Molecular weight>
177.19984436035156

> <name>
(3,4-dimethoxyphenyl)acetonitrile

> <Outcome>
0

> <Molecule (RDKit Mol) (InChI Code)>
InChI=1S/C10H11NO2/c1-12-9-4-3-8(5-6-11)7-10(9)13-2/h3-4,7H,5H2,1-2H3

> <reference>
ECHA

> <molecule_form>
A

$$$$

  Mrv1812 01171911372D          

 35 34  0  0  0  0            999 V2000
    2.8458    2.2090    0.0000 O   0  0  0  0  0  0  0  0  0  0  0  0
    2.4333    1.4945    0.0000 P   0  0  0  0  0  0  0  0  0  0  0  0
    1.7188    1.9070    0.0000 O   0  0  0  0  0  0  0  0  0  0  0  0
    1.7188    2.7320    0.0000 C   0  0  0  0  0  0  0  0  0  0  0  0
    2.4333    3.1445    0.0000 C   0  0  0  0  0  0  0  0  0  0  0  0
    2.4333    3.9695    0.0000 Cl  0  0  0  0  0  0  0  0  0  0  0  0
    1.0043    3.1445    0.0000 C   0  0  0  0  0  0  0  0  0  0  0  0
    1.0043    3.9695    0.0000 Cl  0  0  0  0  0  0  0  0  0  0  0  0
    3.1477    1.0820    0.0000 O   0  0  0  0  0  0  0  0  0  0  0  0
    3.8622    1.4945    0.0000 C   0  0  0  0  0  0  0  0  0  0  0  0
    4.5767    1.0820    0.0000 C   0  0  0  0  0  0  0  0  0  0  0  0
    5.2912    1.4945    0.0000 Cl  0  0  0  0  0  0  0  0  0  0  0  0
    3.8622    2.3195    0.0000 C   0  0  0  0  0  0  0  0  0  0  0  0
    4.5767    2.7320    0.0000 Cl  0  0  0  0  0  0  0  0  0  0  0  0
    2.0208    0.7800    0.0000 O   0  0  0  0  0  0  0  0  0  0  0  0
    1.1958    0.7800    0.0000 C   0  0  0  0  0  0  0  0  0  0  0  0
    0.7833    1.4945    0.0000 C   0  0  0  0  0  0  0  0  0  0  0  0
    1.1958    2.2090    0.0000 Cl  0  0  0  0  0  0  0  0  0  0  0  0
    0.7833    0.0656    0.0000 C   0  0  0  0  0  0  0  0  0  0  0  0
   -0.0417    0.0656    0.0000 Cl  0  0  0  0  0  0  0  0  0  0  0  0
    2.4333    2.3195    0.0000 H   0  0  0  0  0  0  0  0  0  0  0  0
    3.2085    2.8623    0.0000 H   0  0  0  0  0  0  0  0  0  0  0  0
    3.2085    3.4267    0.0000 H   0  0  0  0  0  0  0  0  0  0  0  0
    0.2093    3.3650    0.0000 H   0  0  0  0  0  0  0  0  0  0  0  0
    0.2697    2.7691    0.0000 H   0  0  0  0  0  0  0  0  0  0  0  0
    3.8622    0.6695    0.0000 H   0  0  0  0  0  0  0  0  0  0  0  0
    4.7199    0.2695    0.0000 H   0  0  0  0  0  0  0  0  0  0  0  0
    5.2087    0.5517    0.0000 H   0  0  0  0  0  0  0  0  0  0  0  0
    3.1154    1.9689    0.0000 H   0  0  0  0  0  0  0  0  0  0  0  0
    4.5767    1.9070    0.0000 H   0  0  0  0  0  0  0  0  0  0  0  0
    1.6083    1.4945    0.0000 H   0  0  0  0  0  0  0  0  0  0  0  0
    0.0460    1.8648    0.0000 H   0  0  0  0  0  0  0  0  0  0  0  0
    0.0460    1.1242    0.0000 H   0  0  0  0  0  0  0  0  0  0  0  0
    0.8312   -0.7581    0.0000 H   0  0  0  0  0  0  0  0  0  0  0  0
    1.4726   -0.3878    0.0000 H   0  0  0  0  0  0  0  0  0  0  0  0
  1  2  2  0  0  0  0
  2  3  1  0  0  0  0
  3  4  1  0  0  0  0
  4  5  1  0  0  0  0
  5  6  1  0  0  0  0
  4  7  1  0  0  0  0
  7  8  1  0  0  0  0
  2  9  1  0  0  0  0
  9 10  1  0  0  0  0
 10 11  1  0  0  0  0
 11 12  1  0  0  0  0
 10 13  1  0  0  0  0
 13 14  1  0  0  0  0
  2 15  1  0  0  0  0
 15 16  1  0  0  0  0
 16 17  1  0  0  0  0
 17 18  1  0  0  0  0
 16 19  1  0  0  0  0
 19 20  1  0  0  0  0
  4 21  1  0  0  0  0
  5 22  1  0  0  0  0
  5 23  1  0  0  0  0
  7 24  1  0  0  0  0
  7 25  1  0  0  0  0
 10 26  1  0  0  0  0
 11 27  1  0  0  0  0
 11 28  1  0  0  0  0
 13 29  1  0  0  0  0
 13 30  1  0  0  0  0
 16 31  1  0  0  0  0
 17 32  1  0  0  0  0
 17 33  1  0  0  0  0
 19 34  1  0  0  0  0
 19 35  1  0  0  0  0
M  END
> <id>
4111

> <casrn>
13674-87-8

> <smiles (First)>


> <Molecular weight>
430.9047546386719

> <name>
tris(1,3-dichloropropan-2-yl) phosphate

> <Outcome>
0

> <Molecule (RDKit Mol) (InChI Code)>
InChI=1S/C9H15Cl6O4P/c10-1-7(2-11)17-20(16,18-8(3-12)4-13)19-9(5-14)6-15/h7-9H,1-6H2

> <reference>
ECHA

> <molecule_form>
A

$$$$

  Mrv1812 01171911372D          

 31 31  0  0  0  0            999 V2000
    1.2762    1.9380    0.0000 C   0  0  0  0  0  0  0  0  0  0  0  0
    0.7242    1.3249    0.0000 C   0  0  0  0  0  0  0  0  0  0  0  0
    0.1721    1.9380    0.0000 C   0  0  0  0  0  0  0  0  0  0  0  0
    1.3916    0.8400    0.0000 C   0  0  0  0  0  0  0  0  0  0  0  0
    2.1762    1.0949    0.0000 O   0  0  0  0  0  0  0  0  0  0  0  0
    1.1367    0.0554    0.0000 N   0  0  0  0  0  0  0  0  0  0  0  0
    1.6216   -0.6121    0.0000 C   0  0  0  0  0  0  0  0  0  0  0  0
    2.4421   -0.5258    0.0000 C   0  0  0  0  0  0  0  0  0  0  0  0
    2.9270   -1.1933    0.0000 O   0  0  0  0  0  0  0  0  0  0  0  0
    0.3117    0.0554    0.0000 C   0  0  0  0  0  0  0  0  0  0  0  0
   -0.1733   -0.6121    0.0000 O   0  0  0  0  0  0  0  0  0  0  0  0
    0.0567    0.8400    0.0000 N   0  0  0  0  0  0  0  0  0  0  0  0
   -0.7279    1.0949    0.0000 C   0  0  0  0  0  0  0  0  0  0  0  0
   -0.8994    1.9019    0.0000 C   0  0  0  0  0  0  0  0  0  0  0  0
   -1.6841    2.1568    0.0000 O   0  0  0  0  0  0  0  0  0  0  0  0
    1.8893    1.3860    0.0000 H   0  0  0  0  0  0  0  0  0  0  0  0
    1.8282    2.5511    0.0000 H   0  0  0  0  0  0  0  0  0  0  0  0
    0.6631    2.4900    0.0000 H   0  0  0  0  0  0  0  0  0  0  0  0
   -0.1669    2.6901    0.0000 H   0  0  0  0  0  0  0  0  0  0  0  0
   -0.6529    1.9355    0.0000 H   0  0  0  0  0  0  0  0  0  0  0  0
   -0.1623    1.1838    0.0000 H   0  0  0  0  0  0  0  0  0  0  0  0
    0.9835   -1.1350    0.0000 H   0  0  0  0  0  0  0  0  0  0  0  0
    1.6600   -1.4362    0.0000 H   0  0  0  0  0  0  0  0  0  0  0  0
    3.0802   -0.0029    0.0000 H   0  0  0  0  0  0  0  0  0  0  0  0
    2.4037    0.2983    0.0000 H   0  0  0  0  0  0  0  0  0  0  0  0
    2.5914   -1.9470    0.0000 H   0  0  0  0  0  0  0  0  0  0  0  0
   -1.5235    0.8768    0.0000 H   0  0  0  0  0  0  0  0  0  0  0  0
   -1.0280    0.3264    0.0000 H   0  0  0  0  0  0  0  0  0  0  0  0
   -0.8258    2.7236    0.0000 H   0  0  0  0  0  0  0  0  0  0  0  0
   -1.5125    1.3499    0.0000 H   0  0  0  0  0  0  0  0  0  0  0  0
   -2.2361    2.7699    0.0000 H   0  0  0  0  0  0  0  0  0  0  0  0
  1  2  1  0  0  0  0
  2  3  1  0  0  0  0
  2  4  1  0  0  0  0
  4  5  2  0  0  0  0
  4  6  1  0  0  0  0
  6  7  1  0  0  0  0
  7  8  1  0  0  0  0
  8  9  1  0  0  0  0
  6 10  1  0  0  0  0
 10 11  2  0  0  0  0
 10 12  1  0  0  0  0
  2 12  1  0  0  0  0
 12 13  1  0  0  0  0
 13 14  1  0  0  0  0
 14 15  1  0  0  0  0
  1 16  1  0  0  0  0
  1 17  1  0  0  0  0
  1 18  1  0  0  0  0
  3 19  1  0  0  0  0
  3 20  1  0  0  0  0
  3 21  1  0  0  0  0
  7 22  1  0  0  0  0
  7 23  1  0  0  0  0
  8 24  1  0  0  0  0
  8 25  1  0  0  0  0
  9 26  1  0  0  0  0
 13 27  1  0  0  0  0
 13 28  1  0  0  0  0
 14 29  1  0  0  0  0
 14 30  1  0  0  0  0
 15 31  1  0  0  0  0
M  END
> <id>
971

> <casrn>
26850-24-8

> <smiles (First)>


> <Molecular weight>
216.23434448242188

> <name>
1,3-bis(2-hydroxyethyl)-5,5-dimethylimidazolidine-2,4-dione

> <Outcome>
0

> <Molecule (RDKit Mol) (InChI Code)>
InChI=1S/C9H16N2O4/c1-9(2)7(14)10(3-5-12)8(15)11(9)4-6-13/h12-13H,3-6H2,1-2H3

> <reference>
ECHA

> <molecule_form>
A

$$$$

  Mrv1812 01171911372D          

 59 58  0  0  0  0            999 V2000
   -0.6248   -5.1364    0.0000 C   0  0  0  0  0  0  0  0  0  0  0  0
   -1.3392   -4.7239    0.0000 C   0  0  0  0  0  0  0  0  0  0  0  0
   -2.0537   -5.1364    0.0000 C   0  0  0  0  0  0  0  0  0  0  0  0
   -2.7682   -5.5489    0.0000 C   0  0  0  0  0  0  0  0  0  0  0  0
   -1.6412   -5.8508    0.0000 C   0  0  0  0  0  0  0  0  0  0  0  0
   -2.4662   -4.4219    0.0000 C   0  0  0  0  0  0  0  0  0  0  0  0
   -1.3392   -3.8989    0.0000 C   0  0  0  0  0  0  0  0  0  0  0  0
   -0.5142   -3.8989    0.0000 C   0  0  0  0  0  0  0  0  0  0  0  0
   -2.1642   -3.8989    0.0000 C   0  0  0  0  0  0  0  0  0  0  0  0
   -1.3392   -3.0739    0.0000 S   0  0  0  0  0  0  0  0  0  0  0  0
   -0.6248   -2.6614    0.0000 S   0  0  0  0  0  0  0  0  0  0  0  0
   -0.6248   -1.8364    0.0000 S   0  0  0  0  0  0  0  0  0  0  0  0
    0.0897   -1.4239    0.0000 C   0  0  0  0  0  0  0  0  0  0  0  0
    0.5022   -2.1383    0.0000 C   0  0  0  0  0  0  0  0  0  0  0  0
   -0.3228   -0.7094    0.0000 C   0  0  0  0  0  0  0  0  0  0  0  0
    0.8042   -1.0114    0.0000 C   0  0  0  0  0  0  0  0  0  0  0  0
    1.5187   -1.4239    0.0000 C   0  0  0  0  0  0  0  0  0  0  0  0
    0.8042   -0.1864    0.0000 C   0  0  0  0  0  0  0  0  0  0  0  0
    0.8042    0.6386    0.0000 C   0  0  0  0  0  0  0  0  0  0  0  0
    1.6292   -0.1864    0.0000 C   0  0  0  0  0  0  0  0  0  0  0  0
   -0.0208   -0.1864    0.0000 C   0  0  0  0  0  0  0  0  0  0  0  0
   -1.0373   -5.8508    0.0000 H   0  0  0  0  0  0  0  0  0  0  0  0
    0.0897   -5.5489    0.0000 H   0  0  0  0  0  0  0  0  0  0  0  0
   -0.2123   -4.4219    0.0000 H   0  0  0  0  0  0  0  0  0  0  0  0
   -1.3392   -5.5489    0.0000 H   0  0  0  0  0  0  0  0  0  0  0  0
   -3.1807   -4.8344    0.0000 H   0  0  0  0  0  0  0  0  0  0  0  0
   -3.4826   -5.9614    0.0000 H   0  0  0  0  0  0  0  0  0  0  0  0
   -2.3557   -6.2633    0.0000 H   0  0  0  0  0  0  0  0  0  0  0  0
   -1.9569   -6.6130    0.0000 H   0  0  0  0  0  0  0  0  0  0  0  0
   -1.4277   -6.6477    0.0000 H   0  0  0  0  0  0  0  0  0  0  0  0
   -0.9867   -6.3531    0.0000 H   0  0  0  0  0  0  0  0  0  0  0  0
   -2.7484   -3.6466    0.0000 H   0  0  0  0  0  0  0  0  0  0  0  0
   -3.2414   -4.1397    0.0000 H   0  0  0  0  0  0  0  0  0  0  0  0
   -1.6412   -4.4219    0.0000 H   0  0  0  0  0  0  0  0  0  0  0  0
    0.3108   -3.8989    0.0000 H   0  0  0  0  0  0  0  0  0  0  0  0
   -0.1017   -3.1844    0.0000 H   0  0  0  0  0  0  0  0  0  0  0  0
   -0.9267   -3.1844    0.0000 H   0  0  0  0  0  0  0  0  0  0  0  0
   -1.5245   -3.3779    0.0000 H   0  0  0  0  0  0  0  0  0  0  0  0
   -1.9973   -3.0909    0.0000 H   0  0  0  0  0  0  0  0  0  0  0  0
   -2.5450   -3.1670    0.0000 H   0  0  0  0  0  0  0  0  0  0  0  0
   -0.2123   -2.5508    0.0000 H   0  0  0  0  0  0  0  0  0  0  0  0
    0.9147   -2.8528    0.0000 H   0  0  0  0  0  0  0  0  0  0  0  0
    1.2167   -1.7258    0.0000 H   0  0  0  0  0  0  0  0  0  0  0  0
   -0.7353    0.0051    0.0000 H   0  0  0  0  0  0  0  0  0  0  0  0
   -1.1478   -0.7094    0.0000 H   0  0  0  0  0  0  0  0  0  0  0  0
   -0.7353   -1.4239    0.0000 H   0  0  0  0  0  0  0  0  0  0  0  0
    1.5187   -0.5989    0.0000 H   0  0  0  0  0  0  0  0  0  0  0  0
    1.6796   -2.2330    0.0000 H   0  0  0  0  0  0  0  0  0  0  0  0
    2.2809   -1.7396    0.0000 H   0  0  0  0  0  0  0  0  0  0  0  0
    2.2046   -0.9655    0.0000 H   0  0  0  0  0  0  0  0  0  0  0  0
    1.6292    0.6386    0.0000 H   0  0  0  0  0  0  0  0  0  0  0  0
    0.8042    1.4636    0.0000 H   0  0  0  0  0  0  0  0  0  0  0  0
   -0.0208    0.6386    0.0000 H   0  0  0  0  0  0  0  0  0  0  0  0
    2.4501   -0.2683    0.0000 H   0  0  0  0  0  0  0  0  0  0  0  0
    2.2408    0.3673    0.0000 H   0  0  0  0  0  0  0  0  0  0  0  0
    1.0458    0.3970    0.0000 H   0  0  0  0  0  0  0  0  0  0  0  0
    0.3917   -0.9008    0.0000 H   0  0  0  0  0  0  0  0  0  0  0  0
    0.5626    0.3970    0.0000 H   0  0  0  0  0  0  0  0  0  0  0  0
   -0.5230    0.4682    0.0000 H   0  0  0  0  0  0  0  0  0  0  0  0
  1  2  1  0  0  0  0
  2  3  1  0  0  0  0
  3  4  1  0  0  0  0
  3  5  1  0  0  0  0
  3  6  1  0  0  0  0
  2  7  1  0  0  0  0
  7  8  1  0  0  0  0
  7  9  1  0  0  0  0
  7 10  1  0  0  0  0
 10 11  1  0  0  0  0
 11 12  1  0  0  0  0
 12 13  1  0  0  0  0
 13 14  1  0  0  0  0
 13 15  1  0  0  0  0
 13 16  1  0  0  0  0
 16 17  1  0  0  0  0
 16 18  1  0  0  0  0
 18 19  1  0  0  0  0
 18 20  1  0  0  0  0
 18 21  1  0  0  0  0
  1 22  1  0  0  0  0
  1 23  1  0  0  0  0
  1 24  1  0  0  0  0
  2 25  1  0  0  0  0
  4 26  1  0  0  0  0
  4 27  1  0  0  0  0
  4 28  1  0  0  0  0
  5 29  1  0  0  0  0
  5 30  1  0  0  0  0
  5 31  1  0  0  0  0
  6 32  1  0  0  0  0
  6 33  1  0  0  0  0
  6 34  1  0  0  0  0
  8 35  1  0  0  0  0
  8 36  1  0  0  0  0
  8 37  1  0  0  0  0
  9 38  1  0  0  0  0
  9 39  1  0  0  0  0
  9 40  1  0  0  0  0
 14 41  1  0  0  0  0
 14 42  1  0  0  0  0
 14 43  1  0  0  0  0
 15 44  1  0  0  0  0
 15 45  1  0  0  0  0
 15 46  1  0  0  0  0
 16 47  1  0  0  0  0
 17 48  1  0  0  0  0
 17 49  1  0  0  0  0
 17 50  1  0  0  0  0
 19 51  1  0  0  0  0
 19 52  1  0  0  0  0
 19 53  1  0  0  0  0
 20 54  1  0  0  0  0
 20 55  1  0  0  0  0
 20 56  1  0  0  0  0
 21 57  1  0  0  0  0
 21 58  1  0  0  0  0
 21 59  1  0  0  0  0
M  END
> <id>
2648

> <casrn>
68425-16-1

> <smiles (First)>


> <Molecular weight>
350.6893310546875

> <name>
bis(2,3,4,4-tetramethylpentan-2-yl)trisulfane

> <Outcome>
0

> <Molecule (RDKit Mol) (InChI Code)>
InChI=1S/C18H38S3/c1-13(15(3,4)5)17(9,10)19-21-20-18(11,12)14(2)16(6,7)8/h13-14H,1-12H3

> <reference>
ECHA

> <molecule_form>
A

$$$$

  Mrv1812 01171911372D          

 17 16  0  0  0  0            999 V2000
    1.2297    2.3571    0.0000 C   0  0  0  0  0  0  0  0  0  0  0  0
    0.8172    1.6426    0.0000 C   0  0  0  0  0  0  0  0  0  0  0  0
   -0.0078    1.6426    0.0000 O   0  0  0  0  0  0  0  0  0  0  0  0
    1.2297    0.9281    0.0000 C   0  0  0  0  0  0  0  0  0  0  0  0
    2.0547    0.9281    0.0000 N   0  0  0  0  0  0  0  0  0  0  0  0
    0.8172    0.2137    0.0000 C   0  0  0  0  0  0  0  0  0  0  0  0
    1.2297   -0.5008    0.0000 O   0  0  0  0  0  0  0  0  0  0  0  0
   -0.0078    0.2137    0.0000 O   0  0  0  0  0  0  0  0  0  0  0  0
    1.9441    1.9446    0.0000 H   0  0  0  0  0  0  0  0  0  0  0  0
    1.6422    3.0715    0.0000 H   0  0  0  0  0  0  0  0  0  0  0  0
    0.5152    2.7696    0.0000 H   0  0  0  0  0  0  0  0  0  0  0  0
    0.4047    2.3571    0.0000 H   0  0  0  0  0  0  0  0  0  0  0  0
   -0.7223    1.2301    0.0000 H   0  0  0  0  0  0  0  0  0  0  0  0
    1.6422    1.6426    0.0000 H   0  0  0  0  0  0  0  0  0  0  0  0
    2.4249    0.1909    0.0000 H   0  0  0  0  0  0  0  0  0  0  0  0
    2.8783    0.9761    0.0000 H   0  0  0  0  0  0  0  0  0  0  0  0
   -0.4203    0.9281    0.0000 H   0  0  0  0  0  0  0  0  0  0  0  0
  1  2  1  0  0  0  0
  2  3  1  0  0  0  0
  2  4  1  0  0  0  0
  4  5  1  0  0  0  0
  4  6  1  0  0  0  0
  6  7  2  0  0  0  0
  6  8  1  0  0  0  0
  1  9  1  0  0  0  0
  1 10  1  0  0  0  0
  1 11  1  0  0  0  0
  2 12  1  0  0  0  0
  3 13  1  0  0  0  0
  4 14  1  0  0  0  0
  5 15  1  0  0  0  0
  5 16  1  0  0  0  0
  8 17  1  0  0  0  0
M  END
> <id>
181

> <casrn>
72-19-5

> <smiles (First)>


> <Molecular weight>
119.1191635131836

> <name>
(2S)-2-amino-3-hydroxybutanoic acid

> <Outcome>
0

> <Molecule (RDKit Mol) (InChI Code)>
InChI=1S/C4H9NO3/c1-2(6)3(5)4(7)8/h2-3,6H,5H2,1H3,(H,7,8)

> <reference>
ECHA

> <molecule_form>
A

$$$$

  Mrv1812 01171911372D          

 24 23  0  0  0  0            999 V2000
    2.2228   -2.8328    0.0000 O   0  0  0  0  0  0  0  0  0  0  0  0
    1.5084   -2.4203    0.0000 C   0  0  0  0  0  0  0  0  0  0  0  0
    0.7939   -2.8328    0.0000 O   0  0  0  0  0  0  0  0  0  0  0  0
    1.5084   -1.5953    0.0000 C   0  0  0  0  0  0  0  0  0  0  0  0
    0.7939   -1.1828    0.0000 N   0  0  0  0  0  0  0  0  0  0  0  0
    0.0794   -1.5953    0.0000 C   0  0  0  0  0  0  0  0  0  0  0  0
   -0.6350   -1.1828    0.0000 C   0  0  0  0  0  0  0  0  0  0  0  0
   -1.3495   -1.5953    0.0000 O   0  0  0  0  0  0  0  0  0  0  0  0
   -0.6350   -0.3578    0.0000 O   0  0  0  0  0  0  0  0  0  0  0  0
    0.7939   -0.3578    0.0000 C   0  0  0  0  0  0  0  0  0  0  0  0
    1.5084    0.0547    0.0000 P   0  0  0  0  0  0  0  0  0  0  0  0
    1.9209   -0.6597    0.0000 O   0  0  0  0  0  0  0  0  0  0  0  0
    1.0959    0.7692    0.0000 O   0  0  0  0  0  0  0  0  0  0  0  0
    2.2228    0.4672    0.0000 O   0  0  0  0  0  0  0  0  0  0  0  0
    0.0794   -2.4203    0.0000 H   0  0  0  0  0  0  0  0  0  0  0  0
    2.3320   -1.5473    0.0000 H   0  0  0  0  0  0  0  0  0  0  0  0
    1.9617   -0.9060    0.0000 H   0  0  0  0  0  0  0  0  0  0  0  0
    0.7939   -2.0078    0.0000 H   0  0  0  0  0  0  0  0  0  0  0  0
    0.0794   -0.7703    0.0000 H   0  0  0  0  0  0  0  0  0  0  0  0
   -1.0475    0.3567    0.0000 H   0  0  0  0  0  0  0  0  0  0  0  0
    0.6506    0.4547    0.0000 H   0  0  0  0  0  0  0  0  0  0  0  0
    0.1619    0.1725    0.0000 H   0  0  0  0  0  0  0  0  0  0  0  0
    1.2728    1.5750    0.0000 H   0  0  0  0  0  0  0  0  0  0  0  0
    2.9373    0.0547    0.0000 H   0  0  0  0  0  0  0  0  0  0  0  0
  1  2  2  0  0  0  0
  2  3  1  0  0  0  0
  2  4  1  0  0  0  0
  4  5  1  0  0  0  0
  5  6  1  0  0  0  0
  6  7  1  0  0  0  0
  7  8  2  0  0  0  0
  7  9  1  0  0  0  0
  5 10  1  0  0  0  0
 10 11  1  0  0  0  0
 11 12  2  0  0  0  0
 11 13  1  0  0  0  0
 11 14  1  0  0  0  0
  3 15  1  0  0  0  0
  4 16  1  0  0  0  0
  4 17  1  0  0  0  0
  6 18  1  0  0  0  0
  6 19  1  0  0  0  0
  9 20  1  0  0  0  0
 10 21  1  0  0  0  0
 10 22  1  0  0  0  0
 13 23  1  0  0  0  0
 14 24  1  0  0  0  0
M  END
> <id>
1236

> <casrn>
5994-61-6

> <smiles (First)>


> <Molecular weight>
227.10916137695312

> <name>
2,2'-[(phosphonomethyl)imino]diacetic acid

> <Outcome>
0

> <Molecule (RDKit Mol) (InChI Code)>
InChI=1S/C5H10NO7P/c7-4(8)1-6(2-5(9)10)3-14(11,12)13/h1-3H2,(H,7,8)(H,9,10)(H2,11,12,13)

> <reference>
ECHA

> <molecule_form>
A

$$$$

  Mrv1812 01171911372D          

 48 47  0  0  0  0            999 V2000
    6.0032    4.2826    0.0000 C   0  0  0  0  0  0  0  0  0  0  0  0
    6.7177    4.6951    0.0000 C   0  0  0  0  0  0  0  0  0  0  0  0
    7.4321    4.2826    0.0000 C   0  0  0  0  0  0  0  0  0  0  0  0
    8.1466    4.6951    0.0000 C   0  0  0  0  0  0  0  0  0  0  0  0
    8.8611    4.2826    0.0000 C   0  0  0  0  0  0  0  0  0  0  0  0
    9.5756    4.6951    0.0000 C   0  0  0  0  0  0  0  0  0  0  0  0
   10.2900    4.2826    0.0000 C   0  0  0  0  0  0  0  0  0  0  0  0
   11.0045    4.6951    0.0000 C   0  0  0  0  0  0  0  0  0  0  0  0
   11.7190    4.2826    0.0000 C   0  0  0  0  0  0  0  0  0  0  0  0
   12.4334    4.6951    0.0000 C   0  0  0  0  0  0  0  0  0  0  0  0
   13.1479    4.2826    0.0000 C   0  0  0  0  0  0  0  0  0  0  0  0
   13.8624    4.6951    0.0000 C   0  0  0  0  0  0  0  0  0  0  0  0
   13.8624    5.5201    0.0000 O   0  0  0  0  0  0  0  0  0  0  0  0
   14.5769    4.2826    0.0000 N   0  0  0  0  0  0  0  0  0  0  0  0
   14.5769    3.4576    0.0000 C   0  0  0  0  0  0  0  0  0  0  0  0
   15.2913    4.6951    0.0000 C   0  0  0  0  0  0  0  0  0  0  0  0
   16.0058    4.2826    0.0000 C   0  0  0  0  0  0  0  0  0  0  0  0
   16.7203    4.6951    0.0000 O   0  0  0  0  0  0  0  0  0  0  0  0
   16.0058    3.4576    0.0000 O   0  0  0  0  0  0  0  0  0  0  0  0
    5.5907    4.9971    0.0000 H   0  0  0  0  0  0  0  0  0  0  0  0
    5.2887    3.8701    0.0000 H   0  0  0  0  0  0  0  0  0  0  0  0
    6.4157    3.5681    0.0000 H   0  0  0  0  0  0  0  0  0  0  0  0
    7.0879    5.4323    0.0000 H   0  0  0  0  0  0  0  0  0  0  0  0
    6.3474    5.4323    0.0000 H   0  0  0  0  0  0  0  0  0  0  0  0
    7.0619    3.5453    0.0000 H   0  0  0  0  0  0  0  0  0  0  0  0
    7.8024    3.5453    0.0000 H   0  0  0  0  0  0  0  0  0  0  0  0
    8.5169    5.4323    0.0000 H   0  0  0  0  0  0  0  0  0  0  0  0
    7.7764    5.4323    0.0000 H   0  0  0  0  0  0  0  0  0  0  0  0
    8.4908    3.5453    0.0000 H   0  0  0  0  0  0  0  0  0  0  0  0
    9.2313    3.5453    0.0000 H   0  0  0  0  0  0  0  0  0  0  0  0
    9.9458    5.4323    0.0000 H   0  0  0  0  0  0  0  0  0  0  0  0
    9.2053    5.4323    0.0000 H   0  0  0  0  0  0  0  0  0  0  0  0
    9.9198    3.5453    0.0000 H   0  0  0  0  0  0  0  0  0  0  0  0
   10.6603    3.5453    0.0000 H   0  0  0  0  0  0  0  0  0  0  0  0
   11.3748    5.4323    0.0000 H   0  0  0  0  0  0  0  0  0  0  0  0
   10.6342    5.4323    0.0000 H   0  0  0  0  0  0  0  0  0  0  0  0
   11.3487    3.5453    0.0000 H   0  0  0  0  0  0  0  0  0  0  0  0
   12.0892    3.5453    0.0000 H   0  0  0  0  0  0  0  0  0  0  0  0
   12.8037    5.4323    0.0000 H   0  0  0  0  0  0  0  0  0  0  0  0
   12.0632    5.4323    0.0000 H   0  0  0  0  0  0  0  0  0  0  0  0
   12.7777    3.5453    0.0000 H   0  0  0  0  0  0  0  0  0  0  0  0
   13.5182    3.5453    0.0000 H   0  0  0  0  0  0  0  0  0  0  0  0
   13.7519    3.4576    0.0000 H   0  0  0  0  0  0  0  0  0  0  0  0
   14.5769    2.6326    0.0000 H   0  0  0  0  0  0  0  0  0  0  0  0
   15.4019    3.4576    0.0000 H   0  0  0  0  0  0  0  0  0  0  0  0
   15.6616    5.4323    0.0000 H   0  0  0  0  0  0  0  0  0  0  0  0
   14.9211    5.4323    0.0000 H   0  0  0  0  0  0  0  0  0  0  0  0
   16.5892    2.8742    0.0000 H   0  0  0  0  0  0  0  0  0  0  0  0
  1  2  1  0  0  0  0
  2  3  1  0  0  0  0
  3  4  1  0  0  0  0
  4  5  1  0  0  0  0
  5  6  1  0  0  0  0
  6  7  1  0  0  0  0
  7  8  1  0  0  0  0
  8  9  1  0  0  0  0
  9 10  1  0  0  0  0
 10 11  1  0  0  0  0
 11 12  1  0  0  0  0
 12 13  2  0  0  0  0
 12 14  1  0  0  0  0
 14 15  1  0  0  0  0
 14 16  1  0  0  0  0
 16 17  1  0  0  0  0
 17 18  2  0  0  0  0
 17 19  1  0  0  0  0
  1 20  1  0  0  0  0
  1 21  1  0  0  0  0
  1 22  1  0  0  0  0
  2 23  1  0  0  0  0
  2 24  1  0  0  0  0
  3 25  1  0  0  0  0
  3 26  1  0  0  0  0
  4 27  1  0  0  0  0
  4 28  1  0  0  0  0
  5 29  1  0  0  0  0
  5 30  1  0  0  0  0
  6 31  1  0  0  0  0
  6 32  1  0  0  0  0
  7 33  1  0  0  0  0
  7 34  1  0  0  0  0
  8 35  1  0  0  0  0
  8 36  1  0  0  0  0
  9 37  1  0  0  0  0
  9 38  1  0  0  0  0
 10 39  1  0  0  0  0
 10 40  1  0  0  0  0
 11 41  1  0  0  0  0
 11 42  1  0  0  0  0
 15 43  1  0  0  0  0
 15 44  1  0  0  0  0
 15 45  1  0  0  0  0
 16 46  1  0  0  0  0
 16 47  1  0  0  0  0
 19 48  1  0  0  0  0
M  END
> <id>
3845; 3846

> <casrn>
137-16-6

> <smiles (First)>


> <Molecular weight>
270.3877258300781

> <name>
sodium 2-(N-methyldodecanamido)acetate

> <Outcome>
1

> <Molecule (RDKit Mol) (InChI Code)>
InChI=1S/C15H29NO3/c1-3-4-5-6-7-8-9-10-11-12-14(17)16(2)13-15(18)19/h3-13H2,1-2H3,(H,18,19)

> <reference>
ECHA

> <molecule_form>
A

$$$$

  Mrv1812 01171911372D          

 12 11  0  0  0  0            999 V2000
    2.0625   -0.7145    0.0000 C   0  0  0  0  0  0  0  0  0  0  0  0
    1.2375   -0.7145    0.0000 C   0  0  0  0  0  0  0  0  0  0  0  0
    0.8250   -0.0000    0.0000 C   0  0  0  0  0  0  0  0  0  0  0  0
    0.0000   -0.0000    0.0000 O   0  0  0  0  0  0  0  0  0  0  0  0
    2.0625   -1.5395    0.0000 H   0  0  0  0  0  0  0  0  0  0  0  0
    2.8875   -0.7145    0.0000 H   0  0  0  0  0  0  0  0  0  0  0  0
    2.0625    0.1105    0.0000 H   0  0  0  0  0  0  0  0  0  0  0  0
    0.5482   -1.1678    0.0000 H   0  0  0  0  0  0  0  0  0  0  0  0
    1.1895   -1.5381    0.0000 H   0  0  0  0  0  0  0  0  0  0  0  0
    1.5143    0.4533    0.0000 H   0  0  0  0  0  0  0  0  0  0  0  0
    0.8730    0.8236    0.0000 H   0  0  0  0  0  0  0  0  0  0  0  0
   -0.4125    0.7145    0.0000 H   0  0  0  0  0  0  0  0  0  0  0  0
  1  2  1  0  0  0  0
  2  3  1  0  0  0  0
  3  4  1  0  0  0  0
  1  5  1  0  0  0  0
  1  6  1  0  0  0  0
  1  7  1  0  0  0  0
  2  8  1  0  0  0  0
  2  9  1  0  0  0  0
  3 10  1  0  0  0  0
  3 11  1  0  0  0  0
  4 12  1  0  0  0  0
M  END
> <id>
3789

> <casrn>
71-23-8

> <smiles (First)>


> <Molecular weight>
60.09502029418945

> <name>
propan-1-ol

> <Outcome>
0

> <Molecule (RDKit Mol) (InChI Code)>
InChI=1S/C3H8O/c1-2-3-4/h4H,2-3H2,1H3

> <reference>
ECHA

> <molecule_form>
V

$$$$

  Mrv1812 01171911372D          

 28 29  0  0  0  0            999 V2000
    1.4213   -0.0234    0.0000 C   0  0  0  0  0  0  0  0  0  0  0  0
    2.1358   -0.4359    0.0000 C   0  0  0  0  0  0  0  0  0  0  0  0
    2.8503   -0.0234    0.0000 O   0  0  0  0  0  0  0  0  0  0  0  0
    2.1358   -1.2609    0.0000 C   0  0  0  0  0  0  0  0  0  0  0  0
    2.8503   -1.6734    0.0000 C   0  0  0  0  0  0  0  0  0  0  0  0
    2.8503   -2.4984    0.0000 C   0  0  0  0  0  0  0  0  0  0  0  0
    2.1358   -2.9109    0.0000 C   0  0  0  0  0  0  0  0  0  0  0  0
    2.1358   -3.7359    0.0000 O   0  0  0  0  0  0  0  0  0  0  0  0
    1.4213   -4.1484    0.0000 C   0  0  0  0  0  0  0  0  0  0  0  0
    1.4213   -4.9734    0.0000 C   0  0  0  0  0  0  0  0  0  0  0  0
    0.7069   -5.3859    0.0000 C   0  0  0  0  0  0  0  0  0  0  0  0
   -0.0076   -4.9734    0.0000 C   0  0  0  0  0  0  0  0  0  0  0  0
   -0.7221   -5.3859    0.0000 Cl  0  0  0  0  0  0  0  0  0  0  0  0
   -0.0076   -4.1484    0.0000 C   0  0  0  0  0  0  0  0  0  0  0  0
    0.7069   -3.7359    0.0000 C   0  0  0  0  0  0  0  0  0  0  0  0
    1.4213   -2.4984    0.0000 C   0  0  0  0  0  0  0  0  0  0  0  0
    1.4213   -1.6734    0.0000 C   0  0  0  0  0  0  0  0  0  0  0  0
    0.7069   -1.2609    0.0000 Cl  0  0  0  0  0  0  0  0  0  0  0  0
    1.8338    0.6911    0.0000 H   0  0  0  0  0  0  0  0  0  0  0  0
    0.7069    0.3891    0.0000 H   0  0  0  0  0  0  0  0  0  0  0  0
    1.0088   -0.7378    0.0000 H   0  0  0  0  0  0  0  0  0  0  0  0
    3.5648   -1.2609    0.0000 H   0  0  0  0  0  0  0  0  0  0  0  0
    3.5648   -2.9109    0.0000 H   0  0  0  0  0  0  0  0  0  0  0  0
    2.1358   -5.3859    0.0000 H   0  0  0  0  0  0  0  0  0  0  0  0
    0.7069   -6.2109    0.0000 H   0  0  0  0  0  0  0  0  0  0  0  0
   -0.7221   -3.7359    0.0000 H   0  0  0  0  0  0  0  0  0  0  0  0
    0.7069   -2.9109    0.0000 H   0  0  0  0  0  0  0  0  0  0  0  0
    0.7069   -2.0859    0.0000 H   0  0  0  0  0  0  0  0  0  0  0  0
  1  2  1  0  0  0  0
  2  3  2  0  0  0  0
  2  4  1  0  0  0  0
  4  5  4  0  0  0  0
  5  6  4  0  0  0  0
  6  7  4  0  0  0  0
  7  8  1  0  0  0  0
  8  9  1  0  0  0  0
  9 10  4  0  0  0  0
 10 11  4  0  0  0  0
 11 12  4  0  0  0  0
 12 13  1  0  0  0  0
 12 14  4  0  0  0  0
 14 15  4  0  0  0  0
  9 15  4  0  0  0  0
  7 16  4  0  0  0  0
 16 17  4  0  0  0  0
  4 17  4  0  0  0  0
 17 18  1  0  0  0  0
  1 19  1  0  0  0  0
  1 20  1  0  0  0  0
  1 21  1  0  0  0  0
  5 22  1  0  0  0  0
  6 23  1  0  0  0  0
 10 24  1  0  0  0  0
 11 25  1  0  0  0  0
 14 26  1  0  0  0  0
 15 27  1  0  0  0  0
 16 28  1  0  0  0  0
M  END
> <id>
412

> <casrn>
119851-28-4

> <smiles (First)>


> <Molecular weight>
281.1340026855469

> <name>
-

> <Outcome>
0

> <Molecule (RDKit Mol) (InChI Code)>
InChI=1S/C14H10Cl2O2/c1-9(17)13-7-6-12(8-14(13)16)18-11-4-2-10(15)3-5-11/h2-8H,1H3

> <reference>
ECHA

> <molecule_form>
A

$$$$

  Mrv1812 01171911372D          

  6  5  0  0  0  0            999 V2000
    1.2375    0.7145    0.0000 F   0  0  0  0  0  0  0  0  0  0  0  0
    0.8250   -0.0000    0.0000 C   0  0  0  0  0  0  0  0  0  0  0  0
    1.2375   -0.7145    0.0000 F   0  0  0  0  0  0  0  0  0  0  0  0
    0.0000   -0.0000    0.0000 C   0  0  0  0  0  0  0  0  0  0  0  0
   -0.4125   -0.7145    0.0000 F   0  0  0  0  0  0  0  0  0  0  0  0
   -0.4125    0.7145    0.0000 F   0  0  0  0  0  0  0  0  0  0  0  0
  1  2  1  0  0  0  0
  2  3  1  0  0  0  0
  2  4  2  0  0  0  0
  4  5  1  0  0  0  0
  4  6  1  0  0  0  0
M  END
> <id>
3975

> <casrn>
116-14-3

> <smiles (First)>


> <Molecular weight>
100.0150146484375

> <name>
tetrafluoroethene

> <Outcome>
0

> <Molecule (RDKit Mol) (InChI Code)>
InChI=1S/C2F4/c3-1(4)2(5)6

> <reference>
ECHA

> <molecule_form>
G

$$$$

  Mrv1812 01171911372D          

 20 19  0  0  0  0            999 V2000
    2.8027    0.6684    0.0000 C   0  0  0  0  0  0  0  0  0  0  0  0
    2.0883    0.2559    0.0000 O   0  0  0  0  0  0  0  0  0  0  0  0
    1.3738    0.6684    0.0000 Si  0  0  0  0  0  0  0  0  0  0  0  0
    1.7863    1.3828    0.0000 C   0  0  0  0  0  0  0  0  0  0  0  0
    0.6593    1.0809    0.0000 O   0  0  0  0  0  0  0  0  0  0  0  0
   -0.0551    0.6684    0.0000 C   0  0  0  0  0  0  0  0  0  0  0  0
    0.9613   -0.0461    0.0000 O   0  0  0  0  0  0  0  0  0  0  0  0
    0.1363   -0.0461    0.0000 C   0  0  0  0  0  0  0  0  0  0  0  0
    3.2152   -0.0461    0.0000 H   0  0  0  0  0  0  0  0  0  0  0  0
    3.5172    1.0809    0.0000 H   0  0  0  0  0  0  0  0  0  0  0  0
    2.3902    1.3828    0.0000 H   0  0  0  0  0  0  0  0  0  0  0  0
    2.1988    2.0973    0.0000 H   0  0  0  0  0  0  0  0  0  0  0  0
    1.3738    2.0973    0.0000 H   0  0  0  0  0  0  0  0  0  0  0  0
    0.9613    1.3828    0.0000 H   0  0  0  0  0  0  0  0  0  0  0  0
   -0.1091    1.4916    0.0000 H   0  0  0  0  0  0  0  0  0  0  0  0
   -0.8173    0.9841    0.0000 H   0  0  0  0  0  0  0  0  0  0  0  0
   -0.6754    0.1244    0.0000 H   0  0  0  0  0  0  0  0  0  0  0  0
   -0.2414   -0.7795    0.0000 H   0  0  0  0  0  0  0  0  0  0  0  0
    0.3552   -0.8415    0.0000 H   0  0  0  0  0  0  0  0  0  0  0  0
    0.6385    0.6084    0.0000 H   0  0  0  0  0  0  0  0  0  0  0  0
  1  2  1  0  0  0  0
  2  3  1  0  0  0  0
  3  4  1  0  0  0  0
  3  5  1  0  0  0  0
  5  6  1  0  0  0  0
  3  7  1  0  0  0  0
  7  8  1  0  0  0  0
  1  9  1  0  0  0  0
  1 10  1  0  0  0  0
  1 11  1  0  0  0  0
  4 12  1  0  0  0  0
  4 13  1  0  0  0  0
  4 14  1  0  0  0  0
  6 15  1  0  0  0  0
  6 16  1  0  0  0  0
  6 17  1  0  0  0  0
  8 18  1  0  0  0  0
  8 19  1  0  0  0  0
  8 20  1  0  0  0  0
M  END
> <id>
4085

> <casrn>
1185-55-3

> <smiles (First)>


> <Molecular weight>
136.22178649902344

> <name>
trimethoxy(methyl)silane

> <Outcome>
0

> <Molecule (RDKit Mol) (InChI Code)>
InChI=1S/C4H12O3Si/c1-5-8(4,6-2)7-3/h1-4H3

> <reference>
ECHA

> <molecule_form>
V

$$$$

  Mrv1812 01171911372D          

 43 45  0  0  0  0            999 V2000
    2.8366    2.4527    0.0000 O   0  0  0  0  0  0  0  0  0  0  0  0
    3.5511    2.8652    0.0000 C   0  0  0  0  0  0  0  0  0  0  0  0
    4.2655    2.4527    0.0000 N   0  0  0  0  0  0  0  0  0  0  0  0
    4.2655    1.6277    0.0000 C   0  0  0  0  0  0  0  0  0  0  0  0
    4.9800    1.2152    0.0000 C   0  0  0  0  0  0  0  0  0  0  0  0
    4.9800    0.3902    0.0000 C   0  0  0  0  0  0  0  0  0  0  0  0
    4.2655   -0.0223    0.0000 C   0  0  0  0  0  0  0  0  0  0  0  0
    3.5511    0.3902    0.0000 C   0  0  0  0  0  0  0  0  0  0  0  0
    3.5511    1.2152    0.0000 C   0  0  0  0  0  0  0  0  0  0  0  0
    3.5511    3.6902    0.0000 N   0  0  0  0  0  0  0  0  0  0  0  0
    2.8366    4.1027    0.0000 C   0  0  0  0  0  0  0  0  0  0  0  0
    2.1221    3.6902    0.0000 C   0  0  0  0  0  0  0  0  0  0  0  0
    1.4077    4.1027    0.0000 C   0  0  0  0  0  0  0  0  0  0  0  0
    1.4077    4.9277    0.0000 C   0  0  0  0  0  0  0  0  0  0  0  0
    2.1221    5.3402    0.0000 C   0  0  0  0  0  0  0  0  0  0  0  0
    2.8366    4.9277    0.0000 C   0  0  0  0  0  0  0  0  0  0  0  0
    3.5511    5.3402    0.0000 N   0  0  0  0  0  0  0  0  0  0  0  0
    4.2655    4.9277    0.0000 S   0  0  0  0  0  0  0  0  0  0  0  0
    3.8530    4.2132    0.0000 O   0  0  0  0  0  0  0  0  0  0  0  0
    4.6780    5.6422    0.0000 O   0  0  0  0  0  0  0  0  0  0  0  0
    4.9800    4.5152    0.0000 C   0  0  0  0  0  0  0  0  0  0  0  0
    5.6945    4.9277    0.0000 C   0  0  0  0  0  0  0  0  0  0  0  0
    6.4089    4.5152    0.0000 C   0  0  0  0  0  0  0  0  0  0  0  0
    6.4089    3.6902    0.0000 C   0  0  0  0  0  0  0  0  0  0  0  0
    5.6945    3.2777    0.0000 C   0  0  0  0  0  0  0  0  0  0  0  0
    4.9800    3.6902    0.0000 C   0  0  0  0  0  0  0  0  0  0  0  0
    4.9800    2.8652    0.0000 H   0  0  0  0  0  0  0  0  0  0  0  0
    5.6945    1.6277    0.0000 H   0  0  0  0  0  0  0  0  0  0  0  0
    5.6945   -0.0223    0.0000 H   0  0  0  0  0  0  0  0  0  0  0  0
    4.2655   -0.8473    0.0000 H   0  0  0  0  0  0  0  0  0  0  0  0
    2.8366   -0.0223    0.0000 H   0  0  0  0  0  0  0  0  0  0  0  0
    2.8366    1.6277    0.0000 H   0  0  0  0  0  0  0  0  0  0  0  0
    4.3480    3.4767    0.0000 H   0  0  0  0  0  0  0  0  0  0  0  0
    2.1221    2.8652    0.0000 H   0  0  0  0  0  0  0  0  0  0  0  0
    0.6932    3.6902    0.0000 H   0  0  0  0  0  0  0  0  0  0  0  0
    0.6932    5.3402    0.0000 H   0  0  0  0  0  0  0  0  0  0  0  0
    2.1221    6.1652    0.0000 H   0  0  0  0  0  0  0  0  0  0  0  0
    3.5511    6.1652    0.0000 H   0  0  0  0  0  0  0  0  0  0  0  0
    5.6945    5.7527    0.0000 H   0  0  0  0  0  0  0  0  0  0  0  0
    7.1234    4.9277    0.0000 H   0  0  0  0  0  0  0  0  0  0  0  0
    7.1234    3.2777    0.0000 H   0  0  0  0  0  0  0  0  0  0  0  0
    6.1070    2.5632    0.0000 H   0  0  0  0  0  0  0  0  0  0  0  0
    4.3098    4.1712    0.0000 H   0  0  0  0  0  0  0  0  0  0  0  0
  1  2  2  0  0  0  0
  2  3  1  0  0  0  0
  3  4  1  0  0  0  0
  4  5  4  0  0  0  0
  5  6  4  0  0  0  0
  6  7  4  0  0  0  0
  7  8  4  0  0  0  0
  8  9  4  0  0  0  0
  4  9  4  0  0  0  0
  2 10  1  0  0  0  0
 10 11  1  0  0  0  0
 11 12  4  0  0  0  0
 12 13  4  0  0  0  0
 13 14  4  0  0  0  0
 14 15  4  0  0  0  0
 15 16  4  0  0  0  0
 11 16  4  0  0  0  0
 16 17  1  0  0  0  0
 17 18  1  0  0  0  0
 18 19  2  0  0  0  0
 18 20  2  0  0  0  0
 18 21  1  0  0  0  0
 21 22  4  0  0  0  0
 22 23  4  0  0  0  0
 23 24  4  0  0  0  0
 24 25  4  0  0  0  0
 25 26  4  0  0  0  0
 21 26  4  0  0  0  0
  3 27  1  0  0  0  0
  5 28  1  0  0  0  0
  6 29  1  0  0  0  0
  7 30  1  0  0  0  0
  8 31  1  0  0  0  0
  9 32  1  0  0  0  0
 10 33  1  0  0  0  0
 12 34  1  0  0  0  0
 13 35  1  0  0  0  0
 14 36  1  0  0  0  0
 15 37  1  0  0  0  0
 17 38  1  0  0  0  0
 22 39  1  0  0  0  0
 23 40  1  0  0  0  0
 24 41  1  0  0  0  0
 25 42  1  0  0  0  0
 26 43  1  0  0  0  0
M  END
> <id>
1086

> <casrn>
215917-77-4

> <smiles (First)>


> <Molecular weight>
367.42156982421875

> <name>
1-(2-benzenesulfonamidophenyl)-3-phenylurea

> <Outcome>
0

> <Molecule (RDKit Mol) (InChI Code)>
InChI=1S/C19H17N3O3S/c23-19(20-15-9-3-1-4-10-15)21-17-13-7-8-14-18(17)22-26(24,25)16-11-5-2-6-12-16/h1-14,22H,(H2,20,21,23)

> <reference>
ECHA

> <molecule_form>
A

$$$$

  Mrv1812 01171911372D          

  8  7  0  0  0  0            999 V2000
    0.8250   -0.8250    0.0000 C   0  0  0  0  0  0  0  0  0  0  0  0
    0.8250    0.0000    0.0000 C   0  0  0  0  0  0  0  0  0  0  0  0
    0.8250    0.8250    0.0000 F   0  0  0  0  0  0  0  0  0  0  0  0
    1.6500   -0.0000    0.0000 F   0  0  0  0  0  0  0  0  0  0  0  0
    0.0000    0.0000    0.0000 Cl  0  0  0  0  0  0  0  0  0  0  0  0
    0.0000   -0.8250    0.0000 H   0  0  0  0  0  0  0  0  0  0  0  0
    0.8250   -1.6500    0.0000 H   0  0  0  0  0  0  0  0  0  0  0  0
    1.6500   -0.8250    0.0000 H   0  0  0  0  0  0  0  0  0  0  0  0
  1  2  1  0  0  0  0
  2  3  1  0  0  0  0
  2  4  1  0  0  0  0
  2  5  1  0  0  0  0
  1  6  1  0  0  0  0
  1  7  1  0  0  0  0
  1  8  1  0  0  0  0
M  END
> <id>
1124

> <casrn>
75-68-3

> <smiles (First)>


> <Molecular weight>
100.49502563476562

> <name>
1-chloro-1,1-difluoroethane

> <Outcome>
0

> <Molecule (RDKit Mol) (InChI Code)>
InChI=1S/C2H3ClF2/c1-2(3,4)5/h1H3

> <reference>
ECHA

> <molecule_form>
G

$$$$

  Mrv1812 01171911372D          

 10  9  0  0  0  0            999 V2000
    1.2375    0.7145    0.0000 F   0  0  0  0  0  0  0  0  0  0  0  0
    0.8250    0.0000    0.0000 C   0  0  0  0  0  0  0  0  0  0  0  0
    1.2375   -0.7145    0.0000 F   0  0  0  0  0  0  0  0  0  0  0  0
   -0.0000    0.0000    0.0000 C   0  0  0  0  0  0  0  0  0  0  0  0
   -0.4125    0.7145    0.0000 F   0  0  0  0  0  0  0  0  0  0  0  0
   -0.4125   -0.7145    0.0000 O   0  0  0  0  0  0  0  0  0  0  0  0
    0.0000   -1.4289    0.0000 C   0  0  0  0  0  0  0  0  0  0  0  0
    0.4125   -2.1434    0.0000 F   0  0  0  0  0  0  0  0  0  0  0  0
   -0.7145   -1.8414    0.0000 F   0  0  0  0  0  0  0  0  0  0  0  0
    0.7145   -1.0164    0.0000 F   0  0  0  0  0  0  0  0  0  0  0  0
  1  2  1  0  0  0  0
  2  3  1  0  0  0  0
  2  4  2  0  0  0  0
  4  5  1  0  0  0  0
  4  6  1  0  0  0  0
  6  7  1  0  0  0  0
  7  8  1  0  0  0  0
  7  9  1  0  0  0  0
  7 10  1  0  0  0  0
M  END
> <id>
889

> <casrn>
1187-93-5

> <smiles (First)>


> <Molecular weight>
166.0219268798828

> <name>
1,1,2-trifluoro-2-(trifluoromethoxy)ethene

> <Outcome>
0

> <Molecule (RDKit Mol) (InChI Code)>
InChI=1S/C3F6O/c4-1(5)2(6)10-3(7,8)9

> <reference>
ECHA

> <molecule_form>
G

$$$$

  Mrv1812 01171911372D          

 13 13  0  0  0  0            999 V2000
    0.7145    2.8875    0.0000 N   0  0  0  0  0  0  0  0  0  0  0  0
    0.7145    2.0625    0.0000 C   0  0  0  0  0  0  0  0  0  0  0  0
    0.7145    1.2375    0.0000 C   0  0  0  0  0  0  0  0  0  0  0  0
    1.4289    0.8250    0.0000 C   0  0  0  0  0  0  0  0  0  0  0  0
    2.1434    1.2375    0.0000 F   0  0  0  0  0  0  0  0  0  0  0  0
    1.4289    0.0000    0.0000 C   0  0  0  0  0  0  0  0  0  0  0  0
    0.7145   -0.4125    0.0000 C   0  0  0  0  0  0  0  0  0  0  0  0
    0.0000    0.0000    0.0000 C   0  0  0  0  0  0  0  0  0  0  0  0
    0.0000    0.8250    0.0000 C   0  0  0  0  0  0  0  0  0  0  0  0
   -0.7145    1.2375    0.0000 F   0  0  0  0  0  0  0  0  0  0  0  0
    2.1434   -0.4125    0.0000 H   0  0  0  0  0  0  0  0  0  0  0  0
    0.7145   -1.2375    0.0000 H   0  0  0  0  0  0  0  0  0  0  0  0
   -0.7145   -0.4125    0.0000 H   0  0  0  0  0  0  0  0  0  0  0  0
  1  2  3  0  0  0  0
  2  3  1  0  0  0  0
  3  4  4  0  0  0  0
  4  5  1  0  0  0  0
  4  6  4  0  0  0  0
  6  7  4  0  0  0  0
  7  8  4  0  0  0  0
  8  9  4  0  0  0  0
  3  9  4  0  0  0  0
  9 10  1  0  0  0  0
  6 11  1  0  0  0  0
  7 12  1  0  0  0  0
  8 13  1  0  0  0  0
M  END
> <id>
1310

> <casrn>
1897-52-5

> <smiles (First)>


> <Molecular weight>
139.10223388671875

> <name>
2,6-difluorobenzonitrile

> <Outcome>
1

> <Molecule (RDKit Mol) (InChI Code)>
InChI=1S/C7H3F2N/c8-6-2-1-3-7(9)5(6)4-10/h1-3H

> <reference>
ECHA

> <molecule_form>
V

$$$$

  Mrv1812 01171911372D          

 35 35  0  0  0  0            999 V2000
   -2.6133    5.7709    0.0000 C   0  0  0  0  0  0  0  0  0  0  0  0
   -2.6133    4.9459    0.0000 O   0  0  0  0  0  0  0  0  0  0  0  0
   -1.8988    4.5334    0.0000 Si  0  0  0  0  0  0  0  0  0  0  0  0
   -1.1844    4.1209    0.0000 C   0  0  0  0  0  0  0  0  0  0  0  0
   -1.1844    3.2959    0.0000 C   0  0  0  0  0  0  0  0  0  0  0  0
   -0.4699    2.8834    0.0000 C   0  0  0  0  0  0  0  0  0  0  0  0
   -0.4699    2.0584    0.0000 O   0  0  0  0  0  0  0  0  0  0  0  0
    0.2446    1.6459    0.0000 C   0  0  0  0  0  0  0  0  0  0  0  0
    0.2446    0.8209    0.0000 C   0  0  0  0  0  0  0  0  0  0  0  0
    0.6571    0.1064    0.0000 C   0  0  0  0  0  0  0  0  0  0  0  0
   -0.1679    0.1064    0.0000 O   0  0  0  0  0  0  0  0  0  0  0  0
   -2.3113    3.8189    0.0000 O   0  0  0  0  0  0  0  0  0  0  0  0
   -1.8988    3.1045    0.0000 C   0  0  0  0  0  0  0  0  0  0  0  0
   -1.4863    5.2479    0.0000 O   0  0  0  0  0  0  0  0  0  0  0  0
   -0.6613    5.2479    0.0000 C   0  0  0  0  0  0  0  0  0  0  0  0
   -1.7883    5.7709    0.0000 H   0  0  0  0  0  0  0  0  0  0  0  0
   -2.6133    6.5959    0.0000 H   0  0  0  0  0  0  0  0  0  0  0  0
   -3.4383    5.7709    0.0000 H   0  0  0  0  0  0  0  0  0  0  0  0
   -0.3608    4.1689    0.0000 H   0  0  0  0  0  0  0  0  0  0  0  0
   -0.7310    4.8102    0.0000 H   0  0  0  0  0  0  0  0  0  0  0  0
   -1.2920    2.4780    0.0000 H   0  0  0  0  0  0  0  0  0  0  0  0
   -0.4699    3.7084    0.0000 H   0  0  0  0  0  0  0  0  0  0  0  0
    0.3054    2.6013    0.0000 H   0  0  0  0  0  0  0  0  0  0  0  0
    0.3054    3.1656    0.0000 H   0  0  0  0  0  0  0  0  0  0  0  0
    0.9502    1.2184    0.0000 H   0  0  0  0  0  0  0  0  0  0  0  0
    0.9759    2.0278    0.0000 H   0  0  0  0  0  0  0  0  0  0  0  0
   -0.5523    1.0344    0.0000 H   0  0  0  0  0  0  0  0  0  0  0  0
    1.0273   -0.6308    0.0000 H   0  0  0  0  0  0  0  0  0  0  0  0
    1.4807    0.1544    0.0000 H   0  0  0  0  0  0  0  0  0  0  0  0
   -2.6939    2.8843    0.0000 H   0  0  0  0  0  0  0  0  0  0  0  0
   -2.3286    2.4002    0.0000 H   0  0  0  0  0  0  0  0  0  0  0  0
   -1.5831    3.8667    0.0000 H   0  0  0  0  0  0  0  0  0  0  0  0
    0.0582    4.8443    0.0000 H   0  0  0  0  0  0  0  0  0  0  0  0
   -0.0338    5.7834    0.0000 H   0  0  0  0  0  0  0  0  0  0  0  0
   -0.9467    6.0220    0.0000 H   0  0  0  0  0  0  0  0  0  0  0  0
  1  2  1  0  0  0  0
  2  3  1  0  0  0  0
  3  4  1  0  0  0  0
  4  5  1  0  0  0  0
  5  6  1  0  0  0  0
  6  7  1  0  0  0  0
  7  8  1  0  0  0  0
  8  9  1  0  0  0  0
  9 10  1  0  0  0  0
 10 11  1  0  0  0  0
  9 11  1  0  0  0  0
  3 12  1  0  0  0  0
 12 13  1  0  0  0  0
  3 14  1  0  0  0  0
 14 15  1  0  0  0  0
  1 16  1  0  0  0  0
  1 17  1  0  0  0  0
  1 18  1  0  0  0  0
  4 19  1  0  0  0  0
  4 20  1  0  0  0  0
  5 21  1  0  0  0  0
  5 22  1  0  0  0  0
  6 23  1  0  0  0  0
  6 24  1  0  0  0  0
  8 25  1  0  0  0  0
  8 26  1  0  0  0  0
  9 27  1  0  0  0  0
 10 28  1  0  0  0  0
 10 29  1  0  0  0  0
 13 30  1  0  0  0  0
 13 31  1  0  0  0  0
 13 32  1  0  0  0  0
 15 33  1  0  0  0  0
 15 34  1  0  0  0  0
 15 35  1  0  0  0  0
M  END
> <id>
4091

> <casrn>
2530-83-8

> <smiles (First)>


> <Molecular weight>
236.3376007080078

> <name>
trimethoxy[3-(oxiran-2-ylmethoxy)propyl]silane

> <Outcome>
0

> <Molecule (RDKit Mol) (InChI Code)>
InChI=1S/C9H20O5Si/c1-10-15(11-2,12-3)6-4-5-13-7-9-8-14-9/h9H,4-8H2,1-3H3

> <reference>
ECHA

> <molecule_form>
A

$$$$

  Mrv1812 01171911372D          

 14 14  0  0  0  0            999 V2000
    0.7145    2.0625    0.0000 N   0  0  0  0  0  0  0  0  0  0  0  0
    0.7145    1.2375    0.0000 C   0  0  0  0  0  0  0  0  0  0  0  0
    1.4289    0.8250    0.0000 C   0  0  0  0  0  0  0  0  0  0  0  0
    1.4289    0.0000    0.0000 C   0  0  0  0  0  0  0  0  0  0  0  0
    0.7145   -0.4125    0.0000 C   0  0  0  0  0  0  0  0  0  0  0  0
   -0.0000    0.0000    0.0000 C   0  0  0  0  0  0  0  0  0  0  0  0
   -0.7145   -0.4125    0.0000 Cl  0  0  0  0  0  0  0  0  0  0  0  0
   -0.0000    0.8250    0.0000 C   0  0  0  0  0  0  0  0  0  0  0  0
   -0.7145    1.2375    0.0000 Cl  0  0  0  0  0  0  0  0  0  0  0  0
    1.4289    2.4750    0.0000 H   0  0  0  0  0  0  0  0  0  0  0  0
   -0.0000    2.4750    0.0000 H   0  0  0  0  0  0  0  0  0  0  0  0
    2.1434    1.2375    0.0000 H   0  0  0  0  0  0  0  0  0  0  0  0
    2.1434   -0.4125    0.0000 H   0  0  0  0  0  0  0  0  0  0  0  0
    0.7145   -1.2375    0.0000 H   0  0  0  0  0  0  0  0  0  0  0  0
  1  2  1  0  0  0  0
  2  3  4  0  0  0  0
  3  4  4  0  0  0  0
  4  5  4  0  0  0  0
  5  6  4  0  0  0  0
  6  7  1  0  0  0  0
  6  8  4  0  0  0  0
  2  8  4  0  0  0  0
  8  9  1  0  0  0  0
  1 10  1  0  0  0  0
  1 11  1  0  0  0  0
  3 12  1  0  0  0  0
  4 13  1  0  0  0  0
  5 14  1  0  0  0  0
M  END
> <id>
1282

> <casrn>
608-27-5

> <smiles (First)>


> <Molecular weight>
162.0166015625

> <name>
2,3-dichloroaniline

> <Outcome>
0

> <Molecule (RDKit Mol) (InChI Code)>
InChI=1S/C6H5Cl2N/c7-4-2-1-3-5(9)6(4)8/h1-3H,9H2

> <reference>
ECHA

> <molecule_form>
A

$$$$

  Mrv1812 01171911372D          

111114  0  0  0  0            999 V2000
    3.7798    5.0161    0.0000 C   0  0  0  0  0  0  0  0  0  0  0  0
    4.4943    4.6036    0.0000 C   0  0  0  0  0  0  0  0  0  0  0  0
    4.4943    3.7786    0.0000 O   0  0  0  0  0  0  0  0  0  0  0  0
    5.2088    3.3661    0.0000 C   0  0  0  0  0  0  0  0  0  0  0  0
    5.9232    3.7786    0.0000 O   0  0  0  0  0  0  0  0  0  0  0  0
    5.2088    2.5411    0.0000 C   0  0  0  0  0  0  0  0  0  0  0  0
    5.9232    2.1286    0.0000 N   0  0  0  0  0  0  0  0  0  0  0  0
    6.6377    2.5411    0.0000 C   0  0  0  0  0  0  0  0  0  0  0  0
    6.6377    3.3661    0.0000 C   0  0  0  0  0  0  0  0  0  0  0  0
    6.3022    4.1197    0.0000 O   0  0  0  0  0  0  0  0  0  0  0  0
    7.3522    3.7786    0.0000 O   0  0  0  0  0  0  0  0  0  0  0  0
    7.3522    4.6036    0.0000 C   0  0  0  0  0  0  0  0  0  0  0  0
    8.0667    5.0161    0.0000 C   0  0  0  0  0  0  0  0  0  0  0  0
    5.9232    1.3036    0.0000 C   0  0  0  0  0  0  0  0  0  0  0  0
    5.2088    0.8911    0.0000 O   0  0  0  0  0  0  0  0  0  0  0  0
    6.6377    0.8911    0.0000 O   0  0  0  0  0  0  0  0  0  0  0  0
    6.6377    0.0661    0.0000 C   0  0  0  0  0  0  0  0  0  0  0  0
    7.3052   -0.4189    0.0000 C   0  0  0  0  0  0  0  0  0  0  0  0
    8.0898   -0.1639    0.0000 C   0  0  0  0  0  0  0  0  0  0  0  0
    8.8744    0.0910    0.0000 N   0  0  0  0  0  0  0  0  0  0  0  0
    7.0502   -1.2035    0.0000 C   0  0  0  0  0  0  0  0  0  0  0  0
    7.5351   -1.8709    0.0000 C   0  0  0  0  0  0  0  0  0  0  0  0
    7.1996   -2.6246    0.0000 O   0  0  0  0  0  0  0  0  0  0  0  0
    8.3556   -1.7847    0.0000 O   0  0  0  0  0  0  0  0  0  0  0  0
    8.8405   -2.4521    0.0000 C   0  0  0  0  0  0  0  0  0  0  0  0
    9.6610   -2.3659    0.0000 C   0  0  0  0  0  0  0  0  0  0  0  0
    9.9966   -1.6122    0.0000 C   0  0  0  0  0  0  0  0  0  0  0  0
   10.3321   -0.8585    0.0000 C   0  0  0  0  0  0  0  0  0  0  0  0
   10.7503   -1.9478    0.0000 C   0  0  0  0  0  0  0  0  0  0  0  0
    9.2429   -1.2767    0.0000 C   0  0  0  0  0  0  0  0  0  0  0  0
   10.1459   -3.0333    0.0000 C   0  0  0  0  0  0  0  0  0  0  0  0
    9.8104   -3.7870    0.0000 C   0  0  0  0  0  0  0  0  0  0  0  0
   10.2953   -4.4544    0.0000 C   0  0  0  0  0  0  0  0  0  0  0  0
    8.9899   -3.8732    0.0000 C   0  0  0  0  0  0  0  0  0  0  0  0
    8.5050   -3.2058    0.0000 C   0  0  0  0  0  0  0  0  0  0  0  0
    7.6845   -3.2920    0.0000 C   0  0  0  0  0  0  0  0  0  0  0  0
    6.8640   -3.3783    0.0000 C   0  0  0  0  0  0  0  0  0  0  0  0
    7.5983   -2.4716    0.0000 C   0  0  0  0  0  0  0  0  0  0  0  0
    7.7707   -4.1125    0.0000 C   0  0  0  0  0  0  0  0  0  0  0  0
    6.2252   -1.2035    0.0000 C   0  0  0  0  0  0  0  0  0  0  0  0
    5.5578   -1.6884    0.0000 N   0  0  0  0  0  0  0  0  0  0  0  0
    4.8903   -1.2035    0.0000 C   0  0  0  0  0  0  0  0  0  0  0  0
    4.1057   -1.4584    0.0000 C   0  0  0  0  0  0  0  0  0  0  0  0
    3.9342   -2.2654    0.0000 C   0  0  0  0  0  0  0  0  0  0  0  0
    3.1496   -2.5203    0.0000 C   0  0  0  0  0  0  0  0  0  0  0  0
    2.5365   -1.9683    0.0000 C   0  0  0  0  0  0  0  0  0  0  0  0
    1.7519   -2.2232    0.0000 C   0  0  0  0  0  0  0  0  0  0  0  0
    0.9672   -2.4782    0.0000 C   0  0  0  0  0  0  0  0  0  0  0  0
    1.4969   -1.4386    0.0000 C   0  0  0  0  0  0  0  0  0  0  0  0
    2.0068   -3.0079    0.0000 C   0  0  0  0  0  0  0  0  0  0  0  0
    2.7080   -1.1613    0.0000 C   0  0  0  0  0  0  0  0  0  0  0  0
    3.4926   -0.9064    0.0000 C   0  0  0  0  0  0  0  0  0  0  0  0
    5.1453   -0.4189    0.0000 N   0  0  0  0  0  0  0  0  0  0  0  0
    5.9703   -0.4189    0.0000 N   0  0  0  0  0  0  0  0  0  0  0  0
    4.1923    5.7305    0.0000 H   0  0  0  0  0  0  0  0  0  0  0  0
    3.0654    5.4286    0.0000 H   0  0  0  0  0  0  0  0  0  0  0  0
    3.3673    4.3016    0.0000 H   0  0  0  0  0  0  0  0  0  0  0  0
    5.3179    4.6515    0.0000 H   0  0  0  0  0  0  0  0  0  0  0  0
    4.9477    5.2928    0.0000 H   0  0  0  0  0  0  0  0  0  0  0  0
    4.3852    2.4931    0.0000 H   0  0  0  0  0  0  0  0  0  0  0  0
    4.7554    1.8518    0.0000 H   0  0  0  0  0  0  0  0  0  0  0  0
    7.0911    1.8518    0.0000 H   0  0  0  0  0  0  0  0  0  0  0  0
    7.4613    2.4931    0.0000 H   0  0  0  0  0  0  0  0  0  0  0  0
    6.8988    5.2928    0.0000 H   0  0  0  0  0  0  0  0  0  0  0  0
    6.5286    4.6515    0.0000 H   0  0  0  0  0  0  0  0  0  0  0  0
    8.4792    4.3016    0.0000 H   0  0  0  0  0  0  0  0  0  0  0  0
    8.7811    5.4286    0.0000 H   0  0  0  0  0  0  0  0  0  0  0  0
    7.6542    5.7305    0.0000 H   0  0  0  0  0  0  0  0  0  0  0  0
    8.0201   -2.5384    0.0000 H   0  0  0  0  0  0  0  0  0  0  0  0
    9.1761   -1.6984    0.0000 H   0  0  0  0  0  0  0  0  0  0  0  0
   11.0858   -1.1941    0.0000 H   0  0  0  0  0  0  0  0  0  0  0  0
   10.6677   -0.1049    0.0000 H   0  0  0  0  0  0  0  0  0  0  0  0
    9.5785   -0.5230    0.0000 H   0  0  0  0  0  0  0  0  0  0  0  0
   10.1518   -2.5157    0.0000 H   0  0  0  0  0  0  0  0  0  0  0  0
   11.0459   -2.7180    0.0000 H   0  0  0  0  0  0  0  0  0  0  0  0
   11.5750   -1.9694    0.0000 H   0  0  0  0  0  0  0  0  0  0  0  0
    8.8975   -0.5274    0.0000 H   0  0  0  0  0  0  0  0  0  0  0  0
    8.4519   -1.0423    0.0000 H   0  0  0  0  0  0  0  0  0  0  0  0
    8.5452   -1.7169    0.0000 H   0  0  0  0  0  0  0  0  0  0  0  0
   10.7050   -3.6401    0.0000 H   0  0  0  0  0  0  0  0  0  0  0  0
    9.3255   -3.1196    0.0000 H   0  0  0  0  0  0  0  0  0  0  0  0
    9.4748   -4.5407    0.0000 H   0  0  0  0  0  0  0  0  0  0  0  0
    9.9509   -5.2041    0.0000 H   0  0  0  0  0  0  0  0  0  0  0  0
   10.7644   -5.1331    0.0000 H   0  0  0  0  0  0  0  0  0  0  0  0
   11.1183   -4.3973    0.0000 H   0  0  0  0  0  0  0  0  0  0  0  0
    8.1969   -4.1006    0.0000 H   0  0  0  0  0  0  0  0  0  0  0  0
    8.5286   -4.5572    0.0000 H   0  0  0  0  0  0  0  0  0  0  0  0
    7.7513   -2.8702    0.0000 H   0  0  0  0  0  0  0  0  0  0  0  0
    6.2229   -2.8591    0.0000 H   0  0  0  0  0  0  0  0  0  0  0  0
    6.1966   -3.8632    0.0000 H   0  0  0  0  0  0  0  0  0  0  0  0
    7.1597   -4.1485    0.0000 H   0  0  0  0  0  0  0  0  0  0  0  0
    8.3398   -2.1099    0.0000 H   0  0  0  0  0  0  0  0  0  0  0  0
    7.9982   -1.7500    0.0000 H   0  0  0  0  0  0  0  0  0  0  0  0
    7.1672   -3.1750    0.0000 H   0  0  0  0  0  0  0  0  0  0  0  0
    7.2641   -4.7636    0.0000 H   0  0  0  0  0  0  0  0  0  0  0  0
    7.9261   -4.9228    0.0000 H   0  0  0  0  0  0  0  0  0  0  0  0
    8.3142   -3.4918    0.0000 H   0  0  0  0  0  0  0  0  0  0  0  0
    4.5473   -2.8174    0.0000 H   0  0  0  0  0  0  0  0  0  0  0  0
    2.9780   -3.3273    0.0000 H   0  0  0  0  0  0  0  0  0  0  0  0
    0.7123   -1.6936    0.0000 H   0  0  0  0  0  0  0  0  0  0  0  0
    0.1826   -2.7331    0.0000 H   0  0  0  0  0  0  0  0  0  0  0  0
    1.2222   -3.2628    0.0000 H   0  0  0  0  0  0  0  0  0  0  0  0
    2.3194   -1.5033    0.0000 H   0  0  0  0  0  0  0  0  0  0  0  0
    1.8715   -0.7035    0.0000 H   0  0  0  0  0  0  0  0  0  0  0  0
    0.9611   -0.8113    0.0000 H   0  0  0  0  0  0  0  0  0  0  0  0
    1.9421   -3.8303    0.0000 H   0  0  0  0  0  0  0  0  0  0  0  0
    2.7419   -3.3824    0.0000 H   0  0  0  0  0  0  0  0  0  0  0  0
    2.6341   -2.4721    0.0000 H   0  0  0  0  0  0  0  0  0  0  0  0
    2.7848   -0.3399    0.0000 H   0  0  0  0  0  0  0  0  0  0  0  0
    4.0266   -0.2775    0.0000 H   0  0  0  0  0  0  0  0  0  0  0  0
    4.6604    0.2486    0.0000 H   0  0  0  0  0  0  0  0  0  0  0  0
  1  2  1  0  0  0  0
  2  3  1  0  0  0  0
  3  4  1  0  0  0  0
  4  5  2  0  0  0  0
  4  6  1  0  0  0  0
  6  7  1  0  0  0  0
  7  8  1  0  0  0  0
  8  9  1  0  0  0  0
  9 10  2  0  0  0  0
  9 11  1  0  0  0  0
 11 12  1  0  0  0  0
 12 13  1  0  0  0  0
  7 14  1  0  0  0  0
 14 15  2  0  0  0  0
 14 16  1  0  0  0  0
 16 17  1  0  0  0  0
 17 18  4  0  0  0  0
 18 19  1  0  0  0  0
 19 20  3  0  0  0  0
 18 21  4  0  0  0  0
 21 22  1  0  0  0  0
 22 23  2  0  0  0  0
 22 24  1  0  0  0  0
 24 25  1  0  0  0  0
 25 26  1  0  0  0  0
 26 27  1  0  0  0  0
 27 28  1  0  0  0  0
 27 29  1  0  0  0  0
 27 30  1  0  0  0  0
 26 31  1  0  0  0  0
 31 32  1  0  0  0  0
 32 33  1  0  0  0  0
 32 34  1  0  0  0  0
 34 35  1  0  0  0  0
 25 35  1  0  0  0  0
 35 36  1  0  0  0  0
 36 37  1  0  0  0  0
 36 38  1  0  0  0  0
 36 39  1  0  0  0  0
 21 40  4  0  0  0  0
 40 41  4  0  0  0  0
 41 42  4  0  0  0  0
 42 43  1  0  0  0  0
 43 44  4  0  0  0  0
 44 45  4  0  0  0  0
 45 46  4  0  0  0  0
 46 47  1  0  0  0  0
 47 48  1  0  0  0  0
 47 49  1  0  0  0  0
 47 50  1  0  0  0  0
 46 51  4  0  0  0  0
 51 52  4  0  0  0  0
 43 52  4  0  0  0  0
 42 53  4  0  0  0  0
 53 54  4  0  0  0  0
 17 54  4  0  0  0  0
 40 54  4  0  0  0  0
  1 55  1  0  0  0  0
  1 56  1  0  0  0  0
  1 57  1  0  0  0  0
  2 58  1  0  0  0  0
  2 59  1  0  0  0  0
  6 60  1  0  0  0  0
  6 61  1  0  0  0  0
  8 62  1  0  0  0  0
  8 63  1  0  0  0  0
 12 64  1  0  0  0  0
 12 65  1  0  0  0  0
 13 66  1  0  0  0  0
 13 67  1  0  0  0  0
 13 68  1  0  0  0  0
 25 69  1  0  0  0  0
 26 70  1  0  0  0  0
 28 71  1  0  0  0  0
 28 72  1  0  0  0  0
 28 73  1  0  0  0  0
 29 74  1  0  0  0  0
 29 75  1  0  0  0  0
 29 76  1  0  0  0  0
 30 77  1  0  0  0  0
 30 78  1  0  0  0  0
 30 79  1  0  0  0  0
 31 80  1  0  0  0  0
 31 81  1  0  0  0  0
 32 82  1  0  0  0  0
 33 83  1  0  0  0  0
 33 84  1  0  0  0  0
 33 85  1  0  0  0  0
 34 86  1  0  0  0  0
 34 87  1  0  0  0  0
 35 88  1  0  0  0  0
 37 89  1  0  0  0  0
 37 90  1  0  0  0  0
 37 91  1  0  0  0  0
 38 92  1  0  0  0  0
 38 93  1  0  0  0  0
 38 94  1  0  0  0  0
 39 95  1  0  0  0  0
 39 96  1  0  0  0  0
 39 97  1  0  0  0  0
 44 98  1  0  0  0  0
 45 99  1  0  0  0  0
 48100  1  0  0  0  0
 48101  1  0  0  0  0
 48102  1  0  0  0  0
 49103  1  0  0  0  0
 49104  1  0  0  0  0
 49105  1  0  0  0  0
 50106  1  0  0  0  0
 50107  1  0  0  0  0
 50108  1  0  0  0  0
 51109  1  0  0  0  0
 52110  1  0  0  0  0
 53111  1  0  0  0  0
M  END
> <id>
247

> <casrn>
444065-11-6

> <smiles (First)>


> <Molecular weight>
747.9199829101562

> <name>
-

> <Outcome>
0

> <Molecule (RDKit Mol) (InChI Code)>
InChI=1S/C41H57N5O8/c1-13-51-30(47)22-45(23-31(48)52-14-2)38(50)54-36-27(21-42)32(35-43-34(44-46(35)36)25-15-17-26(18-16-25)39(4,5)6)37(49)53-33-28(40(7,8)9)19-24(3)20-29(33)41(10,11)12/h15-18,24,28-29,33H,13-14,19-20,22-23H2,1-12H3,(H,43,44)

> <reference>
ECHA

> <molecule_form>
A

$$$$

  Mrv1812 01171911372D          

 14 13  0  0  0  0            999 V2000
    0.8814    1.5057    0.0000 C   0  0  0  0  0  0  0  0  0  0  0  0
    1.2939    0.7913    0.0000 C   0  0  0  0  0  0  0  0  0  0  0  0
    0.8814    0.0768    0.0000 C   0  0  0  0  0  0  0  0  0  0  0  0
    1.2939   -0.6377    0.0000 C   0  0  0  0  0  0  0  0  0  0  0  0
    0.0564    0.0768    0.0000 Cl  0  0  0  0  0  0  0  0  0  0  0  0
    1.5959    1.9182    0.0000 H   0  0  0  0  0  0  0  0  0  0  0  0
    0.4689    2.2202    0.0000 H   0  0  0  0  0  0  0  0  0  0  0  0
    0.1669    1.0932    0.0000 H   0  0  0  0  0  0  0  0  0  0  0  0
    2.0311    0.4210    0.0000 H   0  0  0  0  0  0  0  0  0  0  0  0
    2.0311    1.1615    0.0000 H   0  0  0  0  0  0  0  0  0  0  0  0
    1.7064    0.0768    0.0000 H   0  0  0  0  0  0  0  0  0  0  0  0
    0.4970   -0.8512    0.0000 H   0  0  0  0  0  0  0  0  0  0  0  0
    1.2939   -1.4627    0.0000 H   0  0  0  0  0  0  0  0  0  0  0  0
    2.0908   -0.8512    0.0000 H   0  0  0  0  0  0  0  0  0  0  0  0
  1  2  1  0  0  0  0
  2  3  1  0  0  0  0
  3  4  1  0  0  0  0
  3  5  1  0  0  0  0
  1  6  1  0  0  0  0
  1  7  1  0  0  0  0
  1  8  1  0  0  0  0
  2  9  1  0  0  0  0
  2 10  1  0  0  0  0
  3 11  1  0  0  0  0
  4 12  1  0  0  0  0
  4 13  1  0  0  0  0
  4 14  1  0  0  0  0
M  END
> <id>
1443

> <casrn>
78-86-4

> <smiles (First)>


> <Molecular weight>
92.5672607421875

> <name>
2-chlorobutane

> <Outcome>
0

> <Molecule (RDKit Mol) (InChI Code)>
InChI=1S/C4H9Cl/c1-3-4(2)5/h4H,3H2,1-2H3

> <reference>
ECHA

> <molecule_form>
V

$$$$

  Mrv1812 01171911372D          

  6  5  0  0  0  0            999 V2000
    1.2375    0.7145    0.0000 O   0  0  0  0  0  0  0  0  0  0  0  0
    0.8250   -0.0000    0.0000 C   0  0  0  0  0  0  0  0  0  0  0  0
    1.2375   -0.7145    0.0000 O   0  0  0  0  0  0  0  0  0  0  0  0
   -0.0000   -0.0000    0.0000 O   0  0  0  0  0  0  0  0  0  0  0  0
    0.8250   -1.4289    0.0000 H   0  0  0  0  0  0  0  0  0  0  0  0
   -0.4125    0.7145    0.0000 H   0  0  0  0  0  0  0  0  0  0  0  0
  1  2  2  0  0  0  0
  2  3  1  0  0  0  0
  2  4  1  0  0  0  0
  3  5  1  0  0  0  0
  4  6  1  0  0  0  0
M  END
> <id>
2906

> <casrn>
11097-59-9

> <smiles (First)>


> <Molecular weight>
60.0088996887207

> <name>
dialuminium(3+) ion hexamagnesium(2+) ion hexadecahydroxide carbonate

> <Outcome>
0

> <Molecule (RDKit Mol) (InChI Code)>
InChI=1S/CH2O3/c2-1(3)4/h(H2,2,3,4)

> <reference>
ECHA

> <molecule_form>
A

$$$$

  Mrv1812 01171911372D          

 15 15  0  0  0  0            999 V2000
    0.7145    2.0625    0.0000 Cl  0  0  0  0  0  0  0  0  0  0  0  0
    0.7145    1.2375    0.0000 C   0  0  0  0  0  0  0  0  0  0  0  0
    1.4289    0.8250    0.0000 C   0  0  0  0  0  0  0  0  0  0  0  0
    1.4289   -0.0000    0.0000 C   0  0  0  0  0  0  0  0  0  0  0  0
    0.7145   -0.4125    0.0000 C   0  0  0  0  0  0  0  0  0  0  0  0
   -0.0000   -0.0000    0.0000 C   0  0  0  0  0  0  0  0  0  0  0  0
   -0.0000    0.8250    0.0000 C   0  0  0  0  0  0  0  0  0  0  0  0
   -0.7145    1.2375    0.0000 C   0  0  0  0  0  0  0  0  0  0  0  0
   -1.4289    0.8250    0.0000 Cl  0  0  0  0  0  0  0  0  0  0  0  0
   -0.7145    2.0625    0.0000 Cl  0  0  0  0  0  0  0  0  0  0  0  0
    2.1434    1.2375    0.0000 H   0  0  0  0  0  0  0  0  0  0  0  0
    2.1434   -0.4125    0.0000 H   0  0  0  0  0  0  0  0  0  0  0  0
    0.7145   -1.2375    0.0000 H   0  0  0  0  0  0  0  0  0  0  0  0
   -0.7145   -0.4125    0.0000 H   0  0  0  0  0  0  0  0  0  0  0  0
   -0.7145    0.4125    0.0000 H   0  0  0  0  0  0  0  0  0  0  0  0
  1  2  1  0  0  0  0
  2  3  4  0  0  0  0
  3  4  4  0  0  0  0
  4  5  4  0  0  0  0
  5  6  4  0  0  0  0
  6  7  4  0  0  0  0
  2  7  4  0  0  0  0
  7  8  1  0  0  0  0
  8  9  1  0  0  0  0
  8 10  1  0  0  0  0
  3 11  1  0  0  0  0
  4 12  1  0  0  0  0
  5 13  1  0  0  0  0
  6 14  1  0  0  0  0
  8 15  1  0  0  0  0
M  END
> <id>
1134

> <casrn>
88-66-4

> <smiles (First)>


> <Molecular weight>
195.47360229492188

> <name>
1-chloro-2-(dichloromethyl)benzene

> <Outcome>
0

> <Molecule (RDKit Mol) (InChI Code)>
InChI=1S/C7H5Cl3/c8-6-4-2-1-3-5(6)7(9)10/h1-4,7H

> <reference>
ECHA

> <molecule_form>
A

$$$$

  Mrv1812 01171911372D          

 62 61  0  0  0  0            999 V2000
    8.4711    5.7158    0.0000 C   0  0  0  0  0  0  0  0  0  0  0  0
    9.1855    6.1283    0.0000 C   0  0  0  0  0  0  0  0  0  0  0  0
    9.9000    5.7158    0.0000 C   0  0  0  0  0  0  0  0  0  0  0  0
   10.6145    6.1283    0.0000 C   0  0  0  0  0  0  0  0  0  0  0  0
   11.3289    5.7158    0.0000 C   0  0  0  0  0  0  0  0  0  0  0  0
   12.0434    6.1283    0.0000 C   0  0  0  0  0  0  0  0  0  0  0  0
   12.7579    5.7158    0.0000 C   0  0  0  0  0  0  0  0  0  0  0  0
   13.4724    6.1283    0.0000 C   0  0  0  0  0  0  0  0  0  0  0  0
   14.1868    5.7158    0.0000 C   0  0  0  0  0  0  0  0  0  0  0  0
   14.9013    6.1283    0.0000 C   0  0  0  0  0  0  0  0  0  0  0  0
   15.6158    5.7158    0.0000 C   0  0  0  0  0  0  0  0  0  0  0  0
   16.3302    6.1283    0.0000 C   0  0  0  0  0  0  0  0  0  0  0  0
   17.0447    5.7158    0.0000 C   0  0  0  0  0  0  0  0  0  0  0  0
   17.7592    6.1283    0.0000 C   0  0  0  0  0  0  0  0  0  0  0  0
   18.4737    5.7158    0.0000 C   0  0  0  0  0  0  0  0  0  0  0  0
   19.1881    6.1283    0.0000 C   0  0  0  0  0  0  0  0  0  0  0  0
   19.9026    5.7158    0.0000 C   0  0  0  0  0  0  0  0  0  0  0  0
   20.6171    6.1283    0.0000 C   0  0  0  0  0  0  0  0  0  0  0  0
   21.3315    5.7158    0.0000 C   0  0  0  0  0  0  0  0  0  0  0  0
   22.0460    6.1283    0.0000 C   0  0  0  0  0  0  0  0  0  0  0  0
    8.0586    6.4303    0.0000 H   0  0  0  0  0  0  0  0  0  0  0  0
    7.7566    5.3033    0.0000 H   0  0  0  0  0  0  0  0  0  0  0  0
    8.8836    5.0013    0.0000 H   0  0  0  0  0  0  0  0  0  0  0  0
    9.5558    6.8655    0.0000 H   0  0  0  0  0  0  0  0  0  0  0  0
    8.8153    6.8655    0.0000 H   0  0  0  0  0  0  0  0  0  0  0  0
    9.5297    4.9786    0.0000 H   0  0  0  0  0  0  0  0  0  0  0  0
   10.2703    4.9786    0.0000 H   0  0  0  0  0  0  0  0  0  0  0  0
   10.9847    6.8655    0.0000 H   0  0  0  0  0  0  0  0  0  0  0  0
   10.2442    6.8655    0.0000 H   0  0  0  0  0  0  0  0  0  0  0  0
   10.9587    4.9786    0.0000 H   0  0  0  0  0  0  0  0  0  0  0  0
   11.6992    4.9786    0.0000 H   0  0  0  0  0  0  0  0  0  0  0  0
   12.4137    6.8655    0.0000 H   0  0  0  0  0  0  0  0  0  0  0  0
   11.6732    6.8655    0.0000 H   0  0  0  0  0  0  0  0  0  0  0  0
   12.3876    4.9786    0.0000 H   0  0  0  0  0  0  0  0  0  0  0  0
   13.1281    4.9786    0.0000 H   0  0  0  0  0  0  0  0  0  0  0  0
   13.8426    6.8655    0.0000 H   0  0  0  0  0  0  0  0  0  0  0  0
   13.1021    6.8655    0.0000 H   0  0  0  0  0  0  0  0  0  0  0  0
   13.8166    4.9786    0.0000 H   0  0  0  0  0  0  0  0  0  0  0  0
   14.5571    4.9786    0.0000 H   0  0  0  0  0  0  0  0  0  0  0  0
   15.2716    6.8655    0.0000 H   0  0  0  0  0  0  0  0  0  0  0  0
   14.5310    6.8655    0.0000 H   0  0  0  0  0  0  0  0  0  0  0  0
   15.2455    4.9786    0.0000 H   0  0  0  0  0  0  0  0  0  0  0  0
   15.9860    4.9786    0.0000 H   0  0  0  0  0  0  0  0  0  0  0  0
   16.7005    6.8655    0.0000 H   0  0  0  0  0  0  0  0  0  0  0  0
   15.9600    6.8655    0.0000 H   0  0  0  0  0  0  0  0  0  0  0  0
   16.6745    4.9786    0.0000 H   0  0  0  0  0  0  0  0  0  0  0  0
   17.4150    4.9786    0.0000 H   0  0  0  0  0  0  0  0  0  0  0  0
   18.1294    6.8655    0.0000 H   0  0  0  0  0  0  0  0  0  0  0  0
   17.3889    6.8655    0.0000 H   0  0  0  0  0  0  0  0  0  0  0  0
   18.1034    4.9786    0.0000 H   0  0  0  0  0  0  0  0  0  0  0  0
   18.8439    4.9786    0.0000 H   0  0  0  0  0  0  0  0  0  0  0  0
   19.5584    6.8655    0.0000 H   0  0  0  0  0  0  0  0  0  0  0  0
   18.8179    6.8655    0.0000 H   0  0  0  0  0  0  0  0  0  0  0  0
   19.5323    4.9786    0.0000 H   0  0  0  0  0  0  0  0  0  0  0  0
   20.2729    4.9786    0.0000 H   0  0  0  0  0  0  0  0  0  0  0  0
   20.9873    6.8655    0.0000 H   0  0  0  0  0  0  0  0  0  0  0  0
   20.2468    6.8655    0.0000 H   0  0  0  0  0  0  0  0  0  0  0  0
   20.9613    4.9786    0.0000 H   0  0  0  0  0  0  0  0  0  0  0  0
   21.7018    4.9786    0.0000 H   0  0  0  0  0  0  0  0  0  0  0  0
   22.4585    5.4138    0.0000 H   0  0  0  0  0  0  0  0  0  0  0  0
   22.7605    6.5408    0.0000 H   0  0  0  0  0  0  0  0  0  0  0  0
   21.6335    6.8428    0.0000 H   0  0  0  0  0  0  0  0  0  0  0  0
  1  2  1  0  0  0  0
  2  3  1  0  0  0  0
  3  4  1  0  0  0  0
  4  5  1  0  0  0  0
  5  6  1  0  0  0  0
  6  7  1  0  0  0  0
  7  8  1  0  0  0  0
  8  9  1  0  0  0  0
  9 10  1  0  0  0  0
 10 11  1  0  0  0  0
 11 12  1  0  0  0  0
 12 13  1  0  0  0  0
 13 14  1  0  0  0  0
 14 15  1  0  0  0  0
 15 16  1  0  0  0  0
 16 17  1  0  0  0  0
 17 18  1  0  0  0  0
 18 19  1  0  0  0  0
 19 20  1  0  0  0  0
  1 21  1  0  0  0  0
  1 22  1  0  0  0  0
  1 23  1  0  0  0  0
  2 24  1  0  0  0  0
  2 25  1  0  0  0  0
  3 26  1  0  0  0  0
  3 27  1  0  0  0  0
  4 28  1  0  0  0  0
  4 29  1  0  0  0  0
  5 30  1  0  0  0  0
  5 31  1  0  0  0  0
  6 32  1  0  0  0  0
  6 33  1  0  0  0  0
  7 34  1  0  0  0  0
  7 35  1  0  0  0  0
  8 36  1  0  0  0  0
  8 37  1  0  0  0  0
  9 38  1  0  0  0  0
  9 39  1  0  0  0  0
 10 40  1  0  0  0  0
 10 41  1  0  0  0  0
 11 42  1  0  0  0  0
 11 43  1  0  0  0  0
 12 44  1  0  0  0  0
 12 45  1  0  0  0  0
 13 46  1  0  0  0  0
 13 47  1  0  0  0  0
 14 48  1  0  0  0  0
 14 49  1  0  0  0  0
 15 50  1  0  0  0  0
 15 51  1  0  0  0  0
 16 52  1  0  0  0  0
 16 53  1  0  0  0  0
 17 54  1  0  0  0  0
 17 55  1  0  0  0  0
 18 56  1  0  0  0  0
 18 57  1  0  0  0  0
 19 58  1  0  0  0  0
 19 59  1  0  0  0  0
 20 60  1  0  0  0  0
 20 61  1  0  0  0  0
 20 62  1  0  0  0  0
M  END
> <id>
3361; 3362

> <casrn>
112-95-8

> <smiles (First)>


> <Molecular weight>
282.5474853515625

> <name>
icosane

> <Outcome>
0

> <Molecule (RDKit Mol) (InChI Code)>
InChI=1S/C20H42/c1-3-5-7-9-11-13-15-17-19-20-18-16-14-12-10-8-6-4-2/h3-20H2,1-2H3

> <reference>
ECHA

> <molecule_form>
A

$$$$

  Mrv1812 01171911372D          

 12 12  0  0  0  0            999 V2000
    0.7145    2.0625    0.0000 O   0  0  0  0  0  0  0  0  0  0  0  0
    0.7145    1.2375    0.0000 C   0  0  0  0  0  0  0  0  0  0  0  0
    1.4289    0.8250    0.0000 N   0  0  0  0  0  0  0  0  0  0  0  0
    1.4289   -0.0000    0.0000 C   0  0  0  0  0  0  0  0  0  0  0  0
    2.1434   -0.4125    0.0000 O   0  0  0  0  0  0  0  0  0  0  0  0
    0.7145   -0.4125    0.0000 N   0  0  0  0  0  0  0  0  0  0  0  0
    0.7145   -1.2375    0.0000 Cl  0  0  0  0  0  0  0  0  0  0  0  0
   -0.0000   -0.0000    0.0000 C   0  0  0  0  0  0  0  0  0  0  0  0
   -0.7145   -0.4125    0.0000 O   0  0  0  0  0  0  0  0  0  0  0  0
   -0.0000    0.8250    0.0000 N   0  0  0  0  0  0  0  0  0  0  0  0
   -0.7145    1.2375    0.0000 Cl  0  0  0  0  0  0  0  0  0  0  0  0
    2.1434    1.2375    0.0000 H   0  0  0  0  0  0  0  0  0  0  0  0
  1  2  2  0  0  0  0
  2  3  1  0  0  0  0
  3  4  1  0  0  0  0
  4  5  2  0  0  0  0
  4  6  1  0  0  0  0
  6  7  1  0  0  0  0
  6  8  1  0  0  0  0
  8  9  2  0  0  0  0
  8 10  1  0  0  0  0
  2 10  1  0  0  0  0
 10 11  1  0  0  0  0
  3 12  1  0  0  0  0
M  END
> <id>
4129

> <casrn>
2893-78-9

> <smiles (First)>


> <Molecular weight>
196.95639038085938

> <name>
troclosene sodium

> <Outcome>
1

> <Molecule (RDKit Mol) (InChI Code)>
InChI=1S/C3HCl2N3O3/c4-7-1(9)6-2(10)8(5)3(7)11/h(H,6,9,10)

> <reference>
ECHA

> <molecule_form>
A

$$$$

  Mrv1812 01171911372D          

 67 70  0  0  0  0            999 V2000
    3.4827   -3.2380    0.0000 O   0  0  0  0  0  0  0  0  0  0  0  0
    3.6056   -4.0538    0.0000 C   0  0  0  0  0  0  0  0  0  0  0  0
    4.3940   -4.2969    0.0000 C   0  0  0  0  0  0  0  0  0  0  0  0
    4.6954   -5.0649    0.0000 C   0  0  0  0  0  0  0  0  0  0  0  0
    4.2829   -5.7794    0.0000 C   0  0  0  0  0  0  0  0  0  0  0  0
    3.4671   -5.9023    0.0000 C   0  0  0  0  0  0  0  0  0  0  0  0
    2.8623   -5.3412    0.0000 C   0  0  0  0  0  0  0  0  0  0  0  0
    2.9240   -4.5185    0.0000 N   0  0  0  0  0  0  0  0  0  0  0  0
    2.2095   -4.1060    0.0000 C   0  0  0  0  0  0  0  0  0  0  0  0
    2.2095   -3.2810    0.0000 O   0  0  0  0  0  0  0  0  0  0  0  0
    1.4950   -4.5185    0.0000 N   0  0  0  0  0  0  0  0  0  0  0  0
    1.4950   -5.3435    0.0000 C   0  0  0  0  0  0  0  0  0  0  0  0
    2.2095   -5.7560    0.0000 C   0  0  0  0  0  0  0  0  0  0  0  0
    2.2095   -6.5810    0.0000 C   0  0  0  0  0  0  0  0  0  0  0  0
    1.4950   -6.9935    0.0000 C   0  0  0  0  0  0  0  0  0  0  0  0
    1.4950   -7.8185    0.0000 C   0  0  0  0  0  0  0  0  0  0  0  0
    0.7806   -8.2310    0.0000 C   0  0  0  0  0  0  0  0  0  0  0  0
    0.7806   -9.0560    0.0000 C   0  0  0  0  0  0  0  0  0  0  0  0
    0.0661   -9.4685    0.0000 C   0  0  0  0  0  0  0  0  0  0  0  0
   -0.6484   -9.0560    0.0000 C   0  0  0  0  0  0  0  0  0  0  0  0
   -1.3628   -9.4685    0.0000 N   0  0  0  0  0  0  0  0  0  0  0  0
   -1.3628  -10.2935    0.0000 C   0  0  0  0  0  0  0  0  0  0  0  0
   -0.6484  -10.7060    0.0000 O   0  0  0  0  0  0  0  0  0  0  0  0
   -2.0773  -10.7060    0.0000 N   0  0  0  0  0  0  0  0  0  0  0  0
   -2.0157  -11.5287    0.0000 C   0  0  0  0  0  0  0  0  0  0  0  0
   -2.6204  -12.0898    0.0000 C   0  0  0  0  0  0  0  0  0  0  0  0
   -3.4362  -11.9669    0.0000 C   0  0  0  0  0  0  0  0  0  0  0  0
   -3.8487  -11.2524    0.0000 C   0  0  0  0  0  0  0  0  0  0  0  0
   -3.5473  -10.4844    0.0000 C   0  0  0  0  0  0  0  0  0  0  0  0
   -2.7590  -10.2413    0.0000 C   0  0  0  0  0  0  0  0  0  0  0  0
   -2.6360   -9.4255    0.0000 O   0  0  0  0  0  0  0  0  0  0  0  0
   -0.6484   -8.2310    0.0000 C   0  0  0  0  0  0  0  0  0  0  0  0
    0.0661   -7.8185    0.0000 C   0  0  0  0  0  0  0  0  0  0  0  0
    0.7806   -6.5810    0.0000 C   0  0  0  0  0  0  0  0  0  0  0  0
    0.7806   -5.7560    0.0000 C   0  0  0  0  0  0  0  0  0  0  0  0
    5.1620   -3.9955    0.0000 H   0  0  0  0  0  0  0  0  0  0  0  0
    4.6372   -3.5086    0.0000 H   0  0  0  0  0  0  0  0  0  0  0  0
    5.4099   -5.4774    0.0000 H   0  0  0  0  0  0  0  0  0  0  0  0
    5.4634   -4.7635    0.0000 H   0  0  0  0  0  0  0  0  0  0  0  0
    4.4059   -6.5952    0.0000 H   0  0  0  0  0  0  0  0  0  0  0  0
    4.9974   -6.1919    0.0000 H   0  0  0  0  0  0  0  0  0  0  0  0
    2.9060   -6.5071    0.0000 H   0  0  0  0  0  0  0  0  0  0  0  0
    3.5901   -6.7181    0.0000 H   0  0  0  0  0  0  0  0  0  0  0  0
    2.1546   -4.9172    0.0000 H   0  0  0  0  0  0  0  0  0  0  0  0
    3.6303   -5.0398    0.0000 H   0  0  0  0  0  0  0  0  0  0  0  0
    0.7806   -4.1060    0.0000 H   0  0  0  0  0  0  0  0  0  0  0  0
    2.9326   -6.1532    0.0000 H   0  0  0  0  0  0  0  0  0  0  0  0
    2.4648   -7.3655    0.0000 H   0  0  0  0  0  0  0  0  0  0  0  0
    1.9484   -8.5078    0.0000 H   0  0  0  0  0  0  0  0  0  0  0  0
    2.3187   -7.8665    0.0000 H   0  0  0  0  0  0  0  0  0  0  0  0
    1.4950   -9.4685    0.0000 H   0  0  0  0  0  0  0  0  0  0  0  0
    0.0661  -10.2935    0.0000 H   0  0  0  0  0  0  0  0  0  0  0  0
   -2.0773   -9.0560    0.0000 H   0  0  0  0  0  0  0  0  0  0  0  0
   -1.4545  -12.1335    0.0000 H   0  0  0  0  0  0  0  0  0  0  0  0
   -1.1930  -11.4670    0.0000 H   0  0  0  0  0  0  0  0  0  0  0  0
   -2.7434  -12.9056    0.0000 H   0  0  0  0  0  0  0  0  0  0  0  0
   -2.0593  -12.6946    0.0000 H   0  0  0  0  0  0  0  0  0  0  0  0
   -4.1507  -12.3794    0.0000 H   0  0  0  0  0  0  0  0  0  0  0  0
   -3.5592  -12.7827    0.0000 H   0  0  0  0  0  0  0  0  0  0  0  0
   -4.6167  -10.9510    0.0000 H   0  0  0  0  0  0  0  0  0  0  0  0
   -4.5632  -11.6649    0.0000 H   0  0  0  0  0  0  0  0  0  0  0  0
   -3.7905   -9.6961    0.0000 H   0  0  0  0  0  0  0  0  0  0  0  0
   -4.3153  -10.1830    0.0000 H   0  0  0  0  0  0  0  0  0  0  0  0
   -1.3628   -7.8185    0.0000 H   0  0  0  0  0  0  0  0  0  0  0  0
    0.0661   -6.9935    0.0000 H   0  0  0  0  0  0  0  0  0  0  0  0
    0.0661   -6.1685    0.0000 H   0  0  0  0  0  0  0  0  0  0  0  0
    0.3681   -5.0415    0.0000 H   0  0  0  0  0  0  0  0  0  0  0  0
  1  2  2  0  0  0  0
  2  3  1  0  0  0  0
  3  4  1  0  0  0  0
  4  5  1  0  0  0  0
  5  6  1  0  0  0  0
  6  7  1  0  0  0  0
  7  8  1  0  0  0  0
  2  8  1  0  0  0  0
  8  9  1  0  0  0  0
  9 10  2  0  0  0  0
  9 11  1  0  0  0  0
 11 12  1  0  0  0  0
 12 13  4  0  0  0  0
 13 14  4  0  0  0  0
 14 15  4  0  0  0  0
 15 16  1  0  0  0  0
 16 17  1  0  0  0  0
 17 18  4  0  0  0  0
 18 19  4  0  0  0  0
 19 20  4  0  0  0  0
 20 21  1  0  0  0  0
 21 22  1  0  0  0  0
 22 23  2  0  0  0  0
 22 24  1  0  0  0  0
 24 25  1  0  0  0  0
 25 26  1  0  0  0  0
 26 27  1  0  0  0  0
 27 28  1  0  0  0  0
 28 29  1  0  0  0  0
 29 30  1  0  0  0  0
 24 30  1  0  0  0  0
 30 31  2  0  0  0  0
 20 32  4  0  0  0  0
 32 33  4  0  0  0  0
 17 33  4  0  0  0  0
 15 34  4  0  0  0  0
 34 35  4  0  0  0  0
 12 35  4  0  0  0  0
  3 36  1  0  0  0  0
  3 37  1  0  0  0  0
  4 38  1  0  0  0  0
  4 39  1  0  0  0  0
  5 40  1  0  0  0  0
  5 41  1  0  0  0  0
  6 42  1  0  0  0  0
  6 43  1  0  0  0  0
  7 44  1  0  0  0  0
  7 45  1  0  0  0  0
 11 46  1  0  0  0  0
 13 47  1  0  0  0  0
 14 48  1  0  0  0  0
 16 49  1  0  0  0  0
 16 50  1  0  0  0  0
 18 51  1  0  0  0  0
 19 52  1  0  0  0  0
 21 53  1  0  0  0  0
 25 54  1  0  0  0  0
 25 55  1  0  0  0  0
 26 56  1  0  0  0  0
 26 57  1  0  0  0  0
 27 58  1  0  0  0  0
 27 59  1  0  0  0  0
 28 60  1  0  0  0  0
 28 61  1  0  0  0  0
 29 62  1  0  0  0  0
 29 63  1  0  0  0  0
 32 64  1  0  0  0  0
 33 65  1  0  0  0  0
 34 66  1  0  0  0  0
 35 67  1  0  0  0  0
M  END
> <id>
1687

> <casrn>
54112-23-1

> <smiles (First)>


> <Molecular weight>
476.5673828125

> <name>
2-oxo-N-[4-({4-[(2-oxoazepane-1-carbonyl)amino]phenyl}methyl)phenyl]azepane-1-carboxamide

> <Outcome>
0

> <Molecule (RDKit Mol) (InChI Code)>
InChI=1S/C27H32N4O4/c32-24-7-3-1-5-17-30(24)26(34)28-22-13-9-20(10-14-22)19-21-11-15-23(16-12-21)29-27(35)31-18-6-2-4-8-25(31)33/h9-16H,1-8,17-19H2,(H,28,34)(H,29,35)

> <reference>
ECHA

> <molecule_form>
A

$$$$

  Mrv1812 01171911372D          

 95 94  0  0  0  0            999 V2000
   -6.0619    4.0027    0.0000 C   0  0  0  0  0  0  0  0  0  0  0  0
   -5.3474    4.4152    0.0000 C   0  0  0  0  0  0  0  0  0  0  0  0
   -4.6329    4.0027    0.0000 C   0  0  0  0  0  0  0  0  0  0  0  0
   -3.9185    4.4152    0.0000 C   0  0  0  0  0  0  0  0  0  0  0  0
   -3.2040    4.0027    0.0000 C   0  0  0  0  0  0  0  0  0  0  0  0
   -2.4895    4.4152    0.0000 C   0  0  0  0  0  0  0  0  0  0  0  0
   -1.7751    4.0027    0.0000 C   0  0  0  0  0  0  0  0  0  0  0  0
   -1.0606    4.4152    0.0000 C   0  0  0  0  0  0  0  0  0  0  0  0
   -0.3461    4.0027    0.0000 C   0  0  0  0  0  0  0  0  0  0  0  0
    0.3684    4.4152    0.0000 C   0  0  0  0  0  0  0  0  0  0  0  0
    1.0828    4.0027    0.0000 C   0  0  0  0  0  0  0  0  0  0  0  0
    1.7973    4.4152    0.0000 C   0  0  0  0  0  0  0  0  0  0  0  0
    2.5118    4.0027    0.0000 C   0  0  0  0  0  0  0  0  0  0  0  0
    3.2262    4.4152    0.0000 C   0  0  0  0  0  0  0  0  0  0  0  0
    3.9407    4.0027    0.0000 N   0  3  0  0  0  0  0  0  0  0  0  0
    3.5282    3.2883    0.0000 C   0  0  0  0  0  0  0  0  0  0  0  0
    4.3532    4.7172    0.0000 C   0  0  0  0  0  0  0  0  0  0  0  0
    4.6552    3.5902    0.0000 C   0  0  0  0  0  0  0  0  0  0  0  0
    5.3696    4.0027    0.0000 C   0  0  0  0  0  0  0  0  0  0  0  0
    6.0841    3.5902    0.0000 C   0  0  0  0  0  0  0  0  0  0  0  0
    6.7986    4.0027    0.0000 C   0  0  0  0  0  0  0  0  0  0  0  0
    7.5131    3.5902    0.0000 C   0  0  0  0  0  0  0  0  0  0  0  0
    8.2275    4.0027    0.0000 C   0  0  0  0  0  0  0  0  0  0  0  0
    8.9420    3.5902    0.0000 C   0  0  0  0  0  0  0  0  0  0  0  0
    9.6565    4.0027    0.0000 C   0  0  0  0  0  0  0  0  0  0  0  0
   10.3709    3.5902    0.0000 C   0  0  0  0  0  0  0  0  0  0  0  0
   11.0854    4.0027    0.0000 C   0  0  0  0  0  0  0  0  0  0  0  0
   11.7999    3.5902    0.0000 C   0  0  0  0  0  0  0  0  0  0  0  0
   12.5144    4.0027    0.0000 C   0  0  0  0  0  0  0  0  0  0  0  0
   13.2288    3.5902    0.0000 C   0  0  0  0  0  0  0  0  0  0  0  0
   13.9433    4.0027    0.0000 C   0  0  0  0  0  0  0  0  0  0  0  0
   -6.4744    4.7172    0.0000 H   0  0  0  0  0  0  0  0  0  0  0  0
   -6.7764    3.5902    0.0000 H   0  0  0  0  0  0  0  0  0  0  0  0
   -5.6494    3.2883    0.0000 H   0  0  0  0  0  0  0  0  0  0  0  0
   -4.9772    5.1525    0.0000 H   0  0  0  0  0  0  0  0  0  0  0  0
   -5.7177    5.1525    0.0000 H   0  0  0  0  0  0  0  0  0  0  0  0
   -5.0032    3.2655    0.0000 H   0  0  0  0  0  0  0  0  0  0  0  0
   -4.2627    3.2655    0.0000 H   0  0  0  0  0  0  0  0  0  0  0  0
   -3.5482    5.1525    0.0000 H   0  0  0  0  0  0  0  0  0  0  0  0
   -4.2887    5.1525    0.0000 H   0  0  0  0  0  0  0  0  0  0  0  0
   -3.5743    3.2655    0.0000 H   0  0  0  0  0  0  0  0  0  0  0  0
   -2.8337    3.2655    0.0000 H   0  0  0  0  0  0  0  0  0  0  0  0
   -2.1193    5.1525    0.0000 H   0  0  0  0  0  0  0  0  0  0  0  0
   -2.8598    5.1525    0.0000 H   0  0  0  0  0  0  0  0  0  0  0  0
   -2.1453    3.2655    0.0000 H   0  0  0  0  0  0  0  0  0  0  0  0
   -1.4048    3.2655    0.0000 H   0  0  0  0  0  0  0  0  0  0  0  0
   -0.6903    5.1525    0.0000 H   0  0  0  0  0  0  0  0  0  0  0  0
   -1.4308    5.1525    0.0000 H   0  0  0  0  0  0  0  0  0  0  0  0
   -0.7164    3.2655    0.0000 H   0  0  0  0  0  0  0  0  0  0  0  0
    0.0241    3.2655    0.0000 H   0  0  0  0  0  0  0  0  0  0  0  0
    0.7386    5.1525    0.0000 H   0  0  0  0  0  0  0  0  0  0  0  0
   -0.0019    5.1525    0.0000 H   0  0  0  0  0  0  0  0  0  0  0  0
    0.7126    3.2655    0.0000 H   0  0  0  0  0  0  0  0  0  0  0  0
    1.4531    3.2655    0.0000 H   0  0  0  0  0  0  0  0  0  0  0  0
    2.1676    5.1525    0.0000 H   0  0  0  0  0  0  0  0  0  0  0  0
    1.4270    5.1525    0.0000 H   0  0  0  0  0  0  0  0  0  0  0  0
    2.1415    3.2655    0.0000 H   0  0  0  0  0  0  0  0  0  0  0  0
    2.8820    3.2655    0.0000 H   0  0  0  0  0  0  0  0  0  0  0  0
    3.5965    5.1525    0.0000 H   0  0  0  0  0  0  0  0  0  0  0  0
    2.8560    5.1525    0.0000 H   0  0  0  0  0  0  0  0  0  0  0  0
    3.1347    2.5631    0.0000 H   0  0  0  0  0  0  0  0  0  0  0  0
    3.9532    2.5812    0.0000 H   0  0  0  0  0  0  0  0  0  0  0  0
    4.3532    3.2955    0.0000 H   0  0  0  0  0  0  0  0  0  0  0  0
    4.8557    4.0629    0.0000 H   0  0  0  0  0  0  0  0  0  0  0  0
    5.1499    4.9314    0.0000 H   0  0  0  0  0  0  0  0  0  0  0  0
    4.4599    5.5353    0.0000 H   0  0  0  0  0  0  0  0  0  0  0  0
    4.7918    2.7766    0.0000 H   0  0  0  0  0  0  0  0  0  0  0  0
    5.4015    3.2385    0.0000 H   0  0  0  0  0  0  0  0  0  0  0  0
    6.1686    4.2084    0.0000 H   0  0  0  0  0  0  0  0  0  0  0  0
    5.7961    4.7090    0.0000 H   0  0  0  0  0  0  0  0  0  0  0  0
    6.2036    2.7739    0.0000 H   0  0  0  0  0  0  0  0  0  0  0  0
    6.7061    3.0483    0.0000 H   0  0  0  0  0  0  0  0  0  0  0  0
    7.3857    4.5824    0.0000 H   0  0  0  0  0  0  0  0  0  0  0  0
    6.8377    4.8268    0.0000 H   0  0  0  0  0  0  0  0  0  0  0  0
    7.1428    2.8530    0.0000 H   0  0  0  0  0  0  0  0  0  0  0  0
    7.8833    2.8530    0.0000 H   0  0  0  0  0  0  0  0  0  0  0  0
    8.5978    4.7400    0.0000 H   0  0  0  0  0  0  0  0  0  0  0  0
    7.8573    4.7400    0.0000 H   0  0  0  0  0  0  0  0  0  0  0  0
    8.5717    2.8530    0.0000 H   0  0  0  0  0  0  0  0  0  0  0  0
    9.3123    2.8530    0.0000 H   0  0  0  0  0  0  0  0  0  0  0  0
   10.0267    4.7400    0.0000 H   0  0  0  0  0  0  0  0  0  0  0  0
    9.2862    4.7400    0.0000 H   0  0  0  0  0  0  0  0  0  0  0  0
   10.0007    2.8530    0.0000 H   0  0  0  0  0  0  0  0  0  0  0  0
   10.7412    2.8530    0.0000 H   0  0  0  0  0  0  0  0  0  0  0  0
   11.4557    4.7400    0.0000 H   0  0  0  0  0  0  0  0  0  0  0  0
   10.7152    4.7400    0.0000 H   0  0  0  0  0  0  0  0  0  0  0  0
   11.4296    2.8530    0.0000 H   0  0  0  0  0  0  0  0  0  0  0  0
   12.1701    2.8530    0.0000 H   0  0  0  0  0  0  0  0  0  0  0  0
   12.8846    4.7400    0.0000 H   0  0  0  0  0  0  0  0  0  0  0  0
   12.1441    4.7400    0.0000 H   0  0  0  0  0  0  0  0  0  0  0  0
   12.8586    2.8530    0.0000 H   0  0  0  0  0  0  0  0  0  0  0  0
   13.5991    2.8530    0.0000 H   0  0  0  0  0  0  0  0  0  0  0  0
   14.3558    3.2883    0.0000 H   0  0  0  0  0  0  0  0  0  0  0  0
   14.6578    4.4152    0.0000 H   0  0  0  0  0  0  0  0  0  0  0  0
   13.5308    4.7172    0.0000 H   0  0  0  0  0  0  0  0  0  0  0  0
  1  2  1  0  0  0  0
  2  3  1  0  0  0  0
  3  4  1  0  0  0  0
  4  5  1  0  0  0  0
  5  6  1  0  0  0  0
  6  7  1  0  0  0  0
  7  8  1  0  0  0  0
  8  9  1  0  0  0  0
  9 10  1  0  0  0  0
 10 11  1  0  0  0  0
 11 12  1  0  0  0  0
 12 13  1  0  0  0  0
 13 14  1  0  0  0  0
 14 15  1  0  0  0  0
 15 16  1  0  0  0  0
 15 17  1  0  0  0  0
 15 18  1  0  0  0  0
 18 19  1  0  0  0  0
 19 20  1  0  0  0  0
 20 21  1  0  0  0  0
 21 22  1  0  0  0  0
 22 23  1  0  0  0  0
 23 24  1  0  0  0  0
 24 25  1  0  0  0  0
 25 26  1  0  0  0  0
 26 27  1  0  0  0  0
 27 28  1  0  0  0  0
 28 29  1  0  0  0  0
 29 30  1  0  0  0  0
 30 31  1  0  0  0  0
  1 32  1  0  0  0  0
  1 33  1  0  0  0  0
  1 34  1  0  0  0  0
  2 35  1  0  0  0  0
  2 36  1  0  0  0  0
  3 37  1  0  0  0  0
  3 38  1  0  0  0  0
  4 39  1  0  0  0  0
  4 40  1  0  0  0  0
  5 41  1  0  0  0  0
  5 42  1  0  0  0  0
  6 43  1  0  0  0  0
  6 44  1  0  0  0  0
  7 45  1  0  0  0  0
  7 46  1  0  0  0  0
  8 47  1  0  0  0  0
  8 48  1  0  0  0  0
  9 49  1  0  0  0  0
  9 50  1  0  0  0  0
 10 51  1  0  0  0  0
 10 52  1  0  0  0  0
 11 53  1  0  0  0  0
 11 54  1  0  0  0  0
 12 55  1  0  0  0  0
 12 56  1  0  0  0  0
 13 57  1  0  0  0  0
 13 58  1  0  0  0  0
 14 59  1  0  0  0  0
 14 60  1  0  0  0  0
 16 61  1  0  0  0  0
 16 62  1  0  0  0  0
 16 63  1  0  0  0  0
 17 64  1  0  0  0  0
 17 65  1  0  0  0  0
 17 66  1  0  0  0  0
 18 67  1  0  0  0  0
 18 68  1  0  0  0  0
 19 69  1  0  0  0  0
 19 70  1  0  0  0  0
 20 71  1  0  0  0  0
 20 72  1  0  0  0  0
 21 73  1  0  0  0  0
 21 74  1  0  0  0  0
 22 75  1  0  0  0  0
 22 76  1  0  0  0  0
 23 77  1  0  0  0  0
 23 78  1  0  0  0  0
 24 79  1  0  0  0  0
 24 80  1  0  0  0  0
 25 81  1  0  0  0  0
 25 82  1  0  0  0  0
 26 83  1  0  0  0  0
 26 84  1  0  0  0  0
 27 85  1  0  0  0  0
 27 86  1  0  0  0  0
 28 87  1  0  0  0  0
 28 88  1  0  0  0  0
 29 89  1  0  0  0  0
 29 90  1  0  0  0  0
 30 91  1  0  0  0  0
 30 92  1  0  0  0  0
 31 93  1  0  0  0  0
 31 94  1  0  0  0  0
 31 95  1  0  0  0  0
M  CHG  1  15   1
M  END
> <id>
2375

> <casrn>
68391-05-9

> <smiles (First)>


> <Molecular weight>
438.83587646484375

> <name>
N,N-dimethyl-N-tetradecyltetradecan-1-aminium chloride

> <Outcome>
1

> <Molecule (RDKit Mol) (InChI Code)>
InChI=1S/C30H64N/c1-5-7-9-11-13-15-17-19-21-23-25-27-29-31(3,4)30-28-26-24-22-20-18-16-14-12-10-8-6-2/h5-30H2,1-4H3/q+1

> <reference>
ECHA

> <molecule_form>
A

$$$$

  Mrv1812 01171911372D          

 15 14  0  0  0  0            999 V2000
   -0.1913    0.7146    0.0000 N   0  0  0  0  0  0  0  0  0  0  0  0
    0.5232    1.1271    0.0000 C   0  0  0  0  0  0  0  0  0  0  0  0
    0.5232    1.9521    0.0000 O   0  0  0  0  0  0  0  0  0  0  0  0
    1.2376    0.7146    0.0000 N   0  0  0  0  0  0  0  0  0  0  0  0
    1.9521    1.1271    0.0000 C   0  0  0  0  0  0  0  0  0  0  0  0
    2.6666    0.7146    0.0000 C   0  0  0  0  0  0  0  0  0  0  0  0
    3.3810    1.1271    0.0000 O   0  0  0  0  0  0  0  0  0  0  0  0
   -0.9058    1.1271    0.0000 H   0  0  0  0  0  0  0  0  0  0  0  0
   -0.1913   -0.1104    0.0000 H   0  0  0  0  0  0  0  0  0  0  0  0
    1.2376   -0.1104    0.0000 H   0  0  0  0  0  0  0  0  0  0  0  0
    2.3224    1.8643    0.0000 H   0  0  0  0  0  0  0  0  0  0  0  0
    1.5818    1.8643    0.0000 H   0  0  0  0  0  0  0  0  0  0  0  0
    2.2963   -0.0226    0.0000 H   0  0  0  0  0  0  0  0  0  0  0  0
    3.0368   -0.0226    0.0000 H   0  0  0  0  0  0  0  0  0  0  0  0
    4.0955    0.7146    0.0000 H   0  0  0  0  0  0  0  0  0  0  0  0
  1  2  1  0  0  0  0
  2  3  2  0  0  0  0
  2  4  1  0  0  0  0
  4  5  1  0  0  0  0
  5  6  1  0  0  0  0
  6  7  1  0  0  0  0
  1  8  1  0  0  0  0
  1  9  1  0  0  0  0
  4 10  1  0  0  0  0
  5 11  1  0  0  0  0
  5 12  1  0  0  0  0
  6 13  1  0  0  0  0
  6 14  1  0  0  0  0
  7 15  1  0  0  0  0
M  END
> <id>
1084

> <casrn>
1320-51-0

> <smiles (First)>


> <Molecular weight>
104.10781860351562

> <name>
1-(1-hydroxyethyl)urea

> <Outcome>
0

> <Molecule (RDKit Mol) (InChI Code)>
InChI=1S/C3H8N2O2/c4-3(7)5-1-2-6/h6H,1-2H2,(H3,4,5,7)

> <reference>
ECHA

> <molecule_form>
A

$$$$

  Mrv1812 01171911372D          

 30 33  0  0  0  0            999 V2000
    1.9981   -4.0800    0.0000 O   0  0  0  0  0  0  0  0  0  0  0  0
    2.2530   -3.2954    0.0000 C   0  0  0  0  0  0  0  0  0  0  0  0
    1.7681   -2.6279    0.0000 C   0  0  0  0  0  0  0  0  0  0  0  0
    0.9431   -2.6279    0.0000 C   0  0  0  0  0  0  0  0  0  0  0  0
    0.4582   -3.2954    0.0000 N   0  0  0  0  0  0  0  0  0  0  0  0
   -0.3264   -3.0404    0.0000 C   0  0  0  0  0  0  0  0  0  0  0  0
   -1.0409   -3.4529    0.0000 C   0  0  0  0  0  0  0  0  0  0  0  0
   -1.7554   -3.0404    0.0000 C   0  0  0  0  0  0  0  0  0  0  0  0
   -1.7554   -2.2154    0.0000 C   0  0  0  0  0  0  0  0  0  0  0  0
   -1.0409   -1.8029    0.0000 C   0  0  0  0  0  0  0  0  0  0  0  0
   -0.3264   -2.2154    0.0000 C   0  0  0  0  0  0  0  0  0  0  0  0
    0.4582   -1.9605    0.0000 C   0  0  0  0  0  0  0  0  0  0  0  0
    0.7131   -1.1759    0.0000 O   0  0  0  0  0  0  0  0  0  0  0  0
    2.2530   -1.9605    0.0000 N   0  0  0  0  0  0  0  0  0  0  0  0
    3.0376   -2.2154    0.0000 C   0  0  0  0  0  0  0  0  0  0  0  0
    3.7521   -1.8029    0.0000 C   0  0  0  0  0  0  0  0  0  0  0  0
    4.4666   -2.2154    0.0000 C   0  0  0  0  0  0  0  0  0  0  0  0
    4.4666   -3.0404    0.0000 C   0  0  0  0  0  0  0  0  0  0  0  0
    3.7521   -3.4529    0.0000 C   0  0  0  0  0  0  0  0  0  0  0  0
    3.0376   -3.0404    0.0000 C   0  0  0  0  0  0  0  0  0  0  0  0
    0.7131   -4.0800    0.0000 H   0  0  0  0  0  0  0  0  0  0  0  0
   -1.0409   -4.2779    0.0000 H   0  0  0  0  0  0  0  0  0  0  0  0
   -2.4699   -3.4529    0.0000 H   0  0  0  0  0  0  0  0  0  0  0  0
   -2.4699   -1.8029    0.0000 H   0  0  0  0  0  0  0  0  0  0  0  0
   -1.0409   -0.9779    0.0000 H   0  0  0  0  0  0  0  0  0  0  0  0
    1.9981   -1.1759    0.0000 H   0  0  0  0  0  0  0  0  0  0  0  0
    3.7521   -0.9779    0.0000 H   0  0  0  0  0  0  0  0  0  0  0  0
    5.1811   -1.8029    0.0000 H   0  0  0  0  0  0  0  0  0  0  0  0
    5.1811   -3.4529    0.0000 H   0  0  0  0  0  0  0  0  0  0  0  0
    3.7521   -4.2779    0.0000 H   0  0  0  0  0  0  0  0  0  0  0  0
  1  2  2  0  0  0  0
  3  2  1  4  0  0  0
  3  4  2  0  0  0  0
  4  5  1  0  0  0  0
  5  6  1  0  0  0  0
  6  7  4  0  0  0  0
  7  8  4  0  0  0  0
  8  9  4  0  0  0  0
  9 10  4  0  0  0  0
 10 11  4  0  0  0  0
  6 11  4  0  0  0  0
 11 12  1  0  0  0  0
  4 12  1  0  0  0  0
 12 13  2  0  0  0  0
  3 14  1  0  0  0  0
 14 15  1  0  0  0  0
 15 16  4  0  0  0  0
 16 17  4  0  0  0  0
 17 18  4  0  0  0  0
 18 19  4  0  0  0  0
 19 20  4  0  0  0  0
 15 20  4  0  0  0  0
  2 20  1  0  0  0  0
  5 21  1  0  0  0  0
  7 22  1  0  0  0  0
  8 23  1  0  0  0  0
  9 24  1  0  0  0  0
 10 25  1  0  0  0  0
 14 26  1  0  0  0  0
 16 27  1  0  0  0  0
 17 28  1  0  0  0  0
 18 29  1  0  0  0  0
 19 30  1  0  0  0  0
M  END
> <id>
1237

> <casrn>
482-89-3

> <smiles (First)>


> <Molecular weight>
262.2628173828125

> <name>
2,2'-biindole-3,3'(1H,1'H)-dione

> <Outcome>
0

> <Molecule (RDKit Mol) (InChI Code)>
InChI=1S/C16H10N2O2/c19-15-9-5-1-3-7-11(9)17-13(15)14-16(20)10-6-2-4-8-12(10)18-14/h1-8,17-18H

> <reference>
ECHA

> <molecule_form>
A

$$$$

  Mrv1812 01171911372D          

 46 47  0  0  0  0            999 V2000
    2.1487   -6.1997    0.0000 C   0  0  0  0  0  0  0  0  0  0  0  0
    2.8632   -6.6122    0.0000 C   0  0  0  0  0  0  0  0  0  0  0  0
    3.5777   -6.1997    0.0000 O   0  0  0  0  0  0  0  0  0  0  0  0
    4.2921   -6.6122    0.0000 C   0  0  0  0  0  0  0  0  0  0  0  0
    4.2921   -7.4372    0.0000 O   0  0  0  0  0  0  0  0  0  0  0  0
    5.0066   -6.1997    0.0000 C   0  0  0  0  0  0  0  0  0  0  0  0
    5.0066   -5.3747    0.0000 C   0  0  0  0  0  0  0  0  0  0  0  0
    5.7211   -6.6122    0.0000 O   0  0  0  0  0  0  0  0  0  0  0  0
    6.4356   -6.1997    0.0000 C   0  0  0  0  0  0  0  0  0  0  0  0
    6.4356   -5.3747    0.0000 O   0  0  0  0  0  0  0  0  0  0  0  0
    7.1500   -6.6122    0.0000 C   0  0  0  0  0  0  0  0  0  0  0  0
    7.8645   -6.1997    0.0000 C   0  0  0  0  0  0  0  0  0  0  0  0
    8.5790   -6.6122    0.0000 C   0  0  0  0  0  0  0  0  0  0  0  0
    9.2934   -6.1997    0.0000 O   0  0  0  0  0  0  0  0  0  0  0  0
   10.0079   -6.6122    0.0000 C   0  0  0  0  0  0  0  0  0  0  0  0
   10.7224   -6.1997    0.0000 C   0  0  0  0  0  0  0  0  0  0  0  0
   11.4368   -6.6122    0.0000 C   0  0  0  0  0  0  0  0  0  0  0  0
   11.4368   -7.4372    0.0000 C   0  0  0  0  0  0  0  0  0  0  0  0
   12.1513   -7.8497    0.0000 C   0  0  0  0  0  0  0  0  0  0  0  0
   12.8658   -8.2622    0.0000 F   0  0  0  0  0  0  0  0  0  0  0  0
   11.7388   -8.5642    0.0000 F   0  0  0  0  0  0  0  0  0  0  0  0
   12.5638   -7.1352    0.0000 F   0  0  0  0  0  0  0  0  0  0  0  0
   10.7224   -7.8497    0.0000 C   0  0  0  0  0  0  0  0  0  0  0  0
   10.0079   -7.4372    0.0000 C   0  0  0  0  0  0  0  0  0  0  0  0
    9.2934   -7.8497    0.0000 Cl  0  0  0  0  0  0  0  0  0  0  0  0
    8.5790   -7.4372    0.0000 C   0  0  0  0  0  0  0  0  0  0  0  0
    7.8645   -7.8497    0.0000 C   0  0  0  0  0  0  0  0  0  0  0  0
    7.1500   -7.4372    0.0000 C   0  0  0  0  0  0  0  0  0  0  0  0
    6.4356   -7.8497    0.0000 N   0  0  0  0  0  0  0  0  0  0  0  0
    5.7211   -7.4372    0.0000 O   0  0  0  0  0  0  0  0  0  0  0  0
    6.4356   -8.6747    0.0000 O   0  0  0  0  0  0  0  0  0  0  0  0
    2.5612   -5.4852    0.0000 H   0  0  0  0  0  0  0  0  0  0  0  0
    1.4343   -5.7872    0.0000 H   0  0  0  0  0  0  0  0  0  0  0  0
    1.7362   -6.9142    0.0000 H   0  0  0  0  0  0  0  0  0  0  0  0
    2.4929   -7.3495    0.0000 H   0  0  0  0  0  0  0  0  0  0  0  0
    3.2335   -7.3495    0.0000 H   0  0  0  0  0  0  0  0  0  0  0  0
    4.2921   -5.7872    0.0000 H   0  0  0  0  0  0  0  0  0  0  0  0
    5.8035   -5.5882    0.0000 H   0  0  0  0  0  0  0  0  0  0  0  0
    5.4191   -4.6602    0.0000 H   0  0  0  0  0  0  0  0  0  0  0  0
    4.4232   -4.7913    0.0000 H   0  0  0  0  0  0  0  0  0  0  0  0
    7.8645   -5.3747    0.0000 H   0  0  0  0  0  0  0  0  0  0  0  0
   10.7224   -5.3747    0.0000 H   0  0  0  0  0  0  0  0  0  0  0  0
   12.1513   -6.1997    0.0000 H   0  0  0  0  0  0  0  0  0  0  0  0
   10.7224   -8.6747    0.0000 H   0  0  0  0  0  0  0  0  0  0  0  0
    8.5790   -8.2622    0.0000 H   0  0  0  0  0  0  0  0  0  0  0  0
    7.4520   -8.5642    0.0000 H   0  0  0  0  0  0  0  0  0  0  0  0
  1  2  1  0  0  0  0
  2  3  1  0  0  0  0
  3  4  1  0  0  0  0
  4  5  2  0  0  0  0
  4  6  1  0  0  0  0
  6  7  1  0  0  0  0
  6  8  1  0  0  0  0
  8  9  1  0  0  0  0
  9 10  2  0  0  0  0
  9 11  1  0  0  0  0
 11 12  4  0  0  0  0
 12 13  4  0  0  0  0
 13 14  1  0  0  0  0
 14 15  1  0  0  0  0
 15 16  4  0  0  0  0
 16 17  4  0  0  0  0
 17 18  4  0  0  0  0
 18 19  1  0  0  0  0
 19 20  1  0  0  0  0
 19 21  1  0  0  0  0
 19 22  1  0  0  0  0
 18 23  4  0  0  0  0
 23 24  4  0  0  0  0
 15 24  4  0  0  0  0
 24 25  1  0  0  0  0
 13 26  4  0  0  0  0
 26 27  4  0  0  0  0
 27 28  4  0  0  0  0
 11 28  4  0  0  0  0
 28 29  1  0  0  0  0
 29 30  2  0  0  0  0
 29 31  2  0  0  0  0
  1 32  1  0  0  0  0
  1 33  1  0  0  0  0
  1 34  1  0  0  0  0
  2 35  1  0  0  0  0
  2 36  1  0  0  0  0
  6 37  1  0  0  0  0
  7 38  1  0  0  0  0
  7 39  1  0  0  0  0
  7 40  1  0  0  0  0
 12 41  1  0  0  0  0
 16 42  1  0  0  0  0
 17 43  1  0  0  0  0
 23 44  1  0  0  0  0
 26 45  1  0  0  0  0
 27 46  1  0  0  0  0
M  END
> <id>
610

> <casrn>
77501-63-4

> <smiles (First)>


> <Molecular weight>
461.7731018066406

> <name>
-

> <Outcome>
0

> <Molecule (RDKit Mol) (InChI Code)>
InChI=1S/C19H15ClF3NO7/c1-3-29-17(25)10(2)30-18(26)13-9-12(5-6-15(13)24(27)28)31-16-7-4-11(8-14(16)20)19(21,22)23/h4-10H,3H2,1-2H3

> <reference>
ECHA

> <molecule_form>
A

$$$$

  Mrv1812 01171911372D          

 21 20  0  0  0  0            999 V2000
   -0.4125   -0.1105    0.0000 O   0  0  0  0  0  0  0  0  0  0  0  0
    0.0000   -0.8250    0.0000 C   0  0  0  0  0  0  0  0  0  0  0  0
   -0.4125   -1.5395    0.0000 O   0  0  0  0  0  0  0  0  0  0  0  0
    0.8250   -0.8250    0.0000 C   0  0  0  0  0  0  0  0  0  0  0  0
    0.8250   -1.6500    0.0000 F   0  0  0  0  0  0  0  0  0  0  0  0
    1.6500   -0.8250    0.0000 O   0  0  0  0  0  0  0  0  0  0  0  0
    2.0625   -1.5395    0.0000 C   0  0  0  0  0  0  0  0  0  0  0  0
    1.3480   -1.9520    0.0000 F   0  0  0  0  0  0  0  0  0  0  0  0
    2.7770   -1.1270    0.0000 F   0  0  0  0  0  0  0  0  0  0  0  0
    2.4750   -2.2539    0.0000 C   0  0  0  0  0  0  0  0  0  0  0  0
    1.7605   -2.6664    0.0000 F   0  0  0  0  0  0  0  0  0  0  0  0
    3.1895   -1.8414    0.0000 F   0  0  0  0  0  0  0  0  0  0  0  0
    2.8875   -2.9684    0.0000 C   0  0  0  0  0  0  0  0  0  0  0  0
    3.3000   -3.6829    0.0000 F   0  0  0  0  0  0  0  0  0  0  0  0
    2.1730   -3.3809    0.0000 F   0  0  0  0  0  0  0  0  0  0  0  0
    3.6020   -2.5559    0.0000 F   0  0  0  0  0  0  0  0  0  0  0  0
    0.8250    0.0000    0.0000 C   0  0  0  0  0  0  0  0  0  0  0  0
    0.8250    0.8250    0.0000 F   0  0  0  0  0  0  0  0  0  0  0  0
    1.6500    0.0000    0.0000 F   0  0  0  0  0  0  0  0  0  0  0  0
    0.0000    0.0000    0.0000 F   0  0  0  0  0  0  0  0  0  0  0  0
   -1.2375   -1.5395    0.0000 H   0  0  0  0  0  0  0  0  0  0  0  0
  1  2  2  0  0  0  0
  2  3  1  0  0  0  0
  2  4  1  0  0  0  0
  4  5  1  0  0  0  0
  4  6  1  0  0  0  0
  6  7  1  0  0  0  0
  7  8  1  0  0  0  0
  7  9  1  0  0  0  0
  7 10  1  0  0  0  0
 10 11  1  0  0  0  0
 10 12  1  0  0  0  0
 10 13  1  0  0  0  0
 13 14  1  0  0  0  0
 13 15  1  0  0  0  0
 13 16  1  0  0  0  0
  4 17  1  0  0  0  0
 17 18  1  0  0  0  0
 17 19  1  0  0  0  0
 17 20  1  0  0  0  0
  3 21  1  0  0  0  0
M  END
> <id>
644

> <casrn>
62037-80-3

> <smiles (First)>


> <Molecular weight>
329.0448303222656

> <name>
-

> <Outcome>
0

> <Molecule (RDKit Mol) (InChI Code)>
InChI=1S/C6HF11O3/c7-2(1(18)19,4(10,11)12)20-6(16,17)3(8,9)5(13,14)15/h(H,18,19)

> <reference>
ECHA

> <molecule_form>
A

$$$$

  Mrv1812 01171911372D          

 25 25  0  0  0  0            999 V2000
    1.5481    2.3183    0.0000 C   0  0  0  0  0  0  0  0  0  0  0  0
    0.7231    2.3183    0.0000 C   0  0  0  0  0  0  0  0  0  0  0  0
   -0.1019    2.3183    0.0000 C   0  0  0  0  0  0  0  0  0  0  0  0
    0.7231    1.4933    0.0000 C   0  0  0  0  0  0  0  0  0  0  0  0
    1.4376    1.0808    0.0000 C   0  0  0  0  0  0  0  0  0  0  0  0
    1.4376    0.2558    0.0000 C   0  0  0  0  0  0  0  0  0  0  0  0
    0.7231   -0.1567    0.0000 C   0  0  0  0  0  0  0  0  0  0  0  0
    0.0087    0.2558    0.0000 C   0  0  0  0  0  0  0  0  0  0  0  0
    0.0087    1.0808    0.0000 C   0  0  0  0  0  0  0  0  0  0  0  0
    0.7231    3.1433    0.0000 S   0  0  0  0  0  0  0  0  0  0  0  0
    0.7231    3.9683    0.0000 O   0  0  0  0  0  0  0  0  0  0  0  0
    1.5481    3.1433    0.0000 O   0  0  0  0  0  0  0  0  0  0  0  0
   -0.1019    3.1433    0.0000 O   0  0  0  0  0  0  0  0  0  0  0  0
    1.2324    1.5561    0.0000 H   0  0  0  0  0  0  0  0  0  0  0  0
    2.1315    1.7349    0.0000 H   0  0  0  0  0  0  0  0  0  0  0  0
    2.3104    2.6340    0.0000 H   0  0  0  0  0  0  0  0  0  0  0  0
   -0.8641    2.6340    0.0000 H   0  0  0  0  0  0  0  0  0  0  0  0
   -0.6852    1.7349    0.0000 H   0  0  0  0  0  0  0  0  0  0  0  0
    0.2139    1.5561    0.0000 H   0  0  0  0  0  0  0  0  0  0  0  0
    2.1951    0.7539    0.0000 H   0  0  0  0  0  0  0  0  0  0  0  0
    1.8707   -0.4464    0.0000 H   0  0  0  0  0  0  0  0  0  0  0  0
    0.7231   -0.9817    0.0000 H   0  0  0  0  0  0  0  0  0  0  0  0
   -0.7058   -0.1567    0.0000 H   0  0  0  0  0  0  0  0  0  0  0  0
   -0.7488    0.7539    0.0000 H   0  0  0  0  0  0  0  0  0  0  0  0
   -0.3413    3.9328    0.0000 H   0  0  0  0  0  0  0  0  0  0  0  0
  1  2  1  0  0  0  0
  2  3  1  0  0  0  0
  2  4  1  0  0  0  0
  4  5  4  0  0  0  0
  5  6  4  0  0  0  0
  6  7  4  0  0  0  0
  7  8  4  0  0  0  0
  8  9  4  0  0  0  0
  4  9  4  0  0  0  0
  2 10  1  0  0  0  0
 10 11  2  0  0  0  0
 10 12  2  0  0  0  0
 10 13  1  0  0  0  0
  1 14  1  0  0  0  0
  1 15  1  0  0  0  0
  1 16  1  0  0  0  0
  3 17  1  0  0  0  0
  3 18  1  0  0  0  0
  3 19  1  0  0  0  0
  5 20  1  0  0  0  0
  6 21  1  0  0  0  0
  7 22  1  0  0  0  0
  8 23  1  0  0  0  0
  9 24  1  0  0  0  0
 13 25  1  0  0  0  0
M  END
> <id>
3867

> <casrn>
28348-53-0

> <smiles (First)>


> <Molecular weight>
199.24684143066406

> <name>
sodium cumenesulphonate

> <Outcome>
0

> <Molecule (RDKit Mol) (InChI Code)>
InChI=1S/C9H12O3S/c1-9(2,13(10,11)12)8-6-4-3-5-7-8/h3-7H,1-2H3,(H,10,11,12)

> <reference>
ECHA

> <molecule_form>
A

$$$$

  Mrv1812 01171911372D          

 18 18  0  0  0  0            999 V2000
    0.6877    2.0727    0.0000 C   0  0  0  0  0  0  0  0  0  0  0  0
    0.6877    1.2477    0.0000 C   0  0  0  0  0  0  0  0  0  0  0  0
    1.4022    0.8352    0.0000 C   0  0  0  0  0  0  0  0  0  0  0  0
    1.4022    0.0102    0.0000 C   0  0  0  0  0  0  0  0  0  0  0  0
    0.6877   -0.4023    0.0000 C   0  0  0  0  0  0  0  0  0  0  0  0
   -0.0268    0.0102    0.0000 C   0  0  0  0  0  0  0  0  0  0  0  0
   -0.0268    0.8352    0.0000 C   0  0  0  0  0  0  0  0  0  0  0  0
   -0.7412    1.2477    0.0000 C   0  0  0  0  0  0  0  0  0  0  0  0
    1.5127    2.0727    0.0000 H   0  0  0  0  0  0  0  0  0  0  0  0
    0.6877    2.8977    0.0000 H   0  0  0  0  0  0  0  0  0  0  0  0
   -0.1373    2.0727    0.0000 H   0  0  0  0  0  0  0  0  0  0  0  0
    2.1166    1.2477    0.0000 H   0  0  0  0  0  0  0  0  0  0  0  0
    2.1166   -0.4023    0.0000 H   0  0  0  0  0  0  0  0  0  0  0  0
    0.6877   -1.2273    0.0000 H   0  0  0  0  0  0  0  0  0  0  0  0
   -0.7412   -0.4023    0.0000 H   0  0  0  0  0  0  0  0  0  0  0  0
   -0.3287    1.9622    0.0000 H   0  0  0  0  0  0  0  0  0  0  0  0
   -1.4557    1.6602    0.0000 H   0  0  0  0  0  0  0  0  0  0  0  0
   -1.1537    0.5333    0.0000 H   0  0  0  0  0  0  0  0  0  0  0  0
  1  2  1  0  0  0  0
  2  3  4  0  0  0  0
  3  4  4  0  0  0  0
  4  5  4  0  0  0  0
  5  6  4  0  0  0  0
  6  7  4  0  0  0  0
  2  7  4  0  0  0  0
  7  8  1  0  0  0  0
  1  9  1  0  0  0  0
  1 10  1  0  0  0  0
  1 11  1  0  0  0  0
  3 12  1  0  0  0  0
  4 13  1  0  0  0  0
  5 14  1  0  0  0  0
  6 15  1  0  0  0  0
  8 16  1  0  0  0  0
  8 17  1  0  0  0  0
  8 18  1  0  0  0  0
M  END
> <id>
949; 945; 948; 946; 944; 942; 943; 941

> <casrn>
95-47-6

> <smiles (First)>


> <Molecular weight>
106.16500091552734

> <name>
1,2-xylene

> <Outcome>
0

> <Molecule (RDKit Mol) (InChI Code)>
InChI=1S/C8H10/c1-7-5-3-4-6-8(7)2/h3-6H,1-2H3

> <reference>
ECHA

> <molecule_form>
V

$$$$

  Mrv1812 01171911372D          

 11 10  0  0  0  0            999 V2000
    2.0625   -0.7145    0.0000 C   0  0  0  0  0  0  0  0  0  0  0  0
    1.2375   -0.7145    0.0000 C   0  0  0  0  0  0  0  0  0  0  0  0
    0.8250   -0.0000    0.0000 C   0  0  0  0  0  0  0  0  0  0  0  0
    0.0000   -0.0000    0.0000 Br  0  0  0  0  0  0  0  0  0  0  0  0
    2.0625   -1.5395    0.0000 H   0  0  0  0  0  0  0  0  0  0  0  0
    2.8875   -0.7145    0.0000 H   0  0  0  0  0  0  0  0  0  0  0  0
    2.0625    0.1105    0.0000 H   0  0  0  0  0  0  0  0  0  0  0  0
    0.5482   -1.1678    0.0000 H   0  0  0  0  0  0  0  0  0  0  0  0
    1.1895   -1.5381    0.0000 H   0  0  0  0  0  0  0  0  0  0  0  0
    1.5143    0.4533    0.0000 H   0  0  0  0  0  0  0  0  0  0  0  0
    0.8730    0.8236    0.0000 H   0  0  0  0  0  0  0  0  0  0  0  0
  1  2  1  0  0  0  0
  2  3  1  0  0  0  0
  3  4  1  0  0  0  0
  1  5  1  0  0  0  0
  1  6  1  0  0  0  0
  1  7  1  0  0  0  0
  2  8  1  0  0  0  0
  2  9  1  0  0  0  0
  3 10  1  0  0  0  0
  3 11  1  0  0  0  0
M  END
> <id>
1117; 1119; 1120

> <casrn>
106-94-5

> <smiles (First)>


> <Molecular weight>
122.99168395996092

> <name>
1-bromopropane

> <Outcome>
0

> <Molecule (RDKit Mol) (InChI Code)>
InChI=1S/C3H7Br/c1-2-3-4/h2-3H2,1H3

> <reference>
ECHA

> <molecule_form>
V

$$$$

  Mrv1812 01171911372D          

 38 38  0  0  0  0            999 V2000
   -0.7776    3.7519    0.0000 C   0  0  0  0  0  0  0  0  0  0  0  0
   -0.0631    3.3394    0.0000 C   0  0  0  0  0  0  0  0  0  0  0  0
   -0.0631    2.5144    0.0000 O   0  0  0  0  0  0  0  0  0  0  0  0
    0.6514    2.1019    0.0000 C   0  0  0  0  0  0  0  0  0  0  0  0
    0.6514    1.2769    0.0000 C   0  0  0  0  0  0  0  0  0  0  0  0
    1.3658    0.8644    0.0000 C   0  0  0  0  0  0  0  0  0  0  0  0
    1.3658    0.0394    0.0000 C   0  0  0  0  0  0  0  0  0  0  0  0
    0.6514   -0.3731    0.0000 C   0  0  0  0  0  0  0  0  0  0  0  0
    0.6514   -1.1981    0.0000 C   0  0  0  0  0  0  0  0  0  0  0  0
    1.3658   -1.6106    0.0000 O   0  0  0  0  0  0  0  0  0  0  0  0
    1.3658   -2.4356    0.0000 C   0  0  0  0  0  0  0  0  0  0  0  0
    2.0803   -2.8481    0.0000 C   0  0  0  0  0  0  0  0  0  0  0  0
   -0.0631    0.0394    0.0000 C   0  0  0  0  0  0  0  0  0  0  0  0
   -0.0631    0.8644    0.0000 C   0  0  0  0  0  0  0  0  0  0  0  0
   -0.3651    4.4664    0.0000 H   0  0  0  0  0  0  0  0  0  0  0  0
   -1.4920    4.1644    0.0000 H   0  0  0  0  0  0  0  0  0  0  0  0
   -1.1901    3.0374    0.0000 H   0  0  0  0  0  0  0  0  0  0  0  0
    0.7605    3.3874    0.0000 H   0  0  0  0  0  0  0  0  0  0  0  0
    0.3902    4.0287    0.0000 H   0  0  0  0  0  0  0  0  0  0  0  0
    1.4750    2.1499    0.0000 H   0  0  0  0  0  0  0  0  0  0  0  0
    1.1047    2.7912    0.0000 H   0  0  0  0  0  0  0  0  0  0  0  0
   -0.0631    1.6894    0.0000 H   0  0  0  0  0  0  0  0  0  0  0  0
    2.1894    0.9124    0.0000 H   0  0  0  0  0  0  0  0  0  0  0  0
    1.8192    1.5537    0.0000 H   0  0  0  0  0  0  0  0  0  0  0  0
    1.8192   -0.6499    0.0000 H   0  0  0  0  0  0  0  0  0  0  0  0
    2.1894   -0.0086    0.0000 H   0  0  0  0  0  0  0  0  0  0  0  0
   -0.0631   -0.7856    0.0000 H   0  0  0  0  0  0  0  0  0  0  0  0
    0.0194   -1.7284    0.0000 H   0  0  0  0  0  0  0  0  0  0  0  0
    0.5081   -2.0106    0.0000 H   0  0  0  0  0  0  0  0  0  0  0  0
    0.6695   -2.8780    0.0000 H   0  0  0  0  0  0  0  0  0  0  0  0
    1.3833   -3.2604    0.0000 H   0  0  0  0  0  0  0  0  0  0  0  0
    2.3002   -3.6433    0.0000 H   0  0  0  0  0  0  0  0  0  0  0  0
    2.9053   -2.8438    0.0000 H   0  0  0  0  0  0  0  0  0  0  0  0
    2.2917   -2.0507    0.0000 H   0  0  0  0  0  0  0  0  0  0  0  0
   -0.8383    0.3215    0.0000 H   0  0  0  0  0  0  0  0  0  0  0  0
   -0.8383   -0.2428    0.0000 H   0  0  0  0  0  0  0  0  0  0  0  0
   -0.7949    1.2453    0.0000 H   0  0  0  0  0  0  0  0  0  0  0  0
    0.6514    0.4519    0.0000 H   0  0  0  0  0  0  0  0  0  0  0  0
  1  2  1  0  0  0  0
  2  3  1  0  0  0  0
  3  4  1  0  0  0  0
  4  5  1  0  0  0  0
  5  6  1  0  0  0  0
  6  7  1  0  0  0  0
  7  8  1  0  0  0  0
  8  9  1  0  0  0  0
  9 10  1  0  0  0  0
 10 11  1  0  0  0  0
 11 12  1  0  0  0  0
  8 13  1  0  0  0  0
 13 14  1  0  0  0  0
  5 14  1  0  0  0  0
  1 15  1  0  0  0  0
  1 16  1  0  0  0  0
  1 17  1  0  0  0  0
  2 18  1  0  0  0  0
  2 19  1  0  0  0  0
  4 20  1  0  0  0  0
  4 21  1  0  0  0  0
  5 22  1  0  0  0  0
  6 23  1  0  0  0  0
  6 24  1  0  0  0  0
  7 25  1  0  0  0  0
  7 26  1  0  0  0  0
  8 27  1  0  0  0  0
  9 28  1  0  0  0  0
  9 29  1  0  0  0  0
 11 30  1  0  0  0  0
 11 31  1  0  0  0  0
 12 32  1  0  0  0  0
 12 33  1  0  0  0  0
 12 34  1  0  0  0  0
 13 35  1  0  0  0  0
 13 36  1  0  0  0  0
 14 37  1  0  0  0  0
 14 38  1  0  0  0  0
M  END
> <id>
156

> <casrn>
54889-63-3

> <smiles (First)>


> <Molecular weight>
200.31776428222656

> <name>
(1r,4r)-1,4-bis(ethoxymethyl)cyclohexane; (1s,4s)-1,4-bis(ethoxymethyl)cyclohexane

> <Outcome>
0

> <Molecule (RDKit Mol) (InChI Code)>
InChI=1S/C12H24O2/c1-3-13-9-11-5-7-12(8-6-11)10-14-4-2/h11-12H,3-10H2,1-2H3

> <reference>
ECHA

> <molecule_form>
A

$$$$

  Mrv1812 01171911372D          

 15 14  0  0  0  0            999 V2000
    0.8538   -0.7298    0.0000 C   0  0  0  0  0  0  0  0  0  0  0  0
    0.8538    0.0952    0.0000 C   0  0  0  0  0  0  0  0  0  0  0  0
    0.8538    0.9202    0.0000 C   0  0  0  0  0  0  0  0  0  0  0  0
    1.6788    0.0952    0.0000 C   0  0  0  0  0  0  0  0  0  0  0  0
    0.0288    0.0952    0.0000 O   0  0  0  0  0  0  0  0  0  0  0  0
    0.0288   -0.7298    0.0000 H   0  0  0  0  0  0  0  0  0  0  0  0
    0.8538   -1.5548    0.0000 H   0  0  0  0  0  0  0  0  0  0  0  0
    1.6788   -0.7298    0.0000 H   0  0  0  0  0  0  0  0  0  0  0  0
    1.6788    0.9202    0.0000 H   0  0  0  0  0  0  0  0  0  0  0  0
    0.8538    1.7452    0.0000 H   0  0  0  0  0  0  0  0  0  0  0  0
    0.0288    0.9202    0.0000 H   0  0  0  0  0  0  0  0  0  0  0  0
    2.2621   -0.4881    0.0000 H   0  0  0  0  0  0  0  0  0  0  0  0
    2.5038    0.0952    0.0000 H   0  0  0  0  0  0  0  0  0  0  0  0
    2.2621    0.6786    0.0000 H   0  0  0  0  0  0  0  0  0  0  0  0
   -0.7962    0.0952    0.0000 H   0  0  0  0  0  0  0  0  0  0  0  0
  1  2  1  0  0  0  0
  2  3  1  0  0  0  0
  2  4  1  0  0  0  0
  2  5  1  0  0  0  0
  1  6  1  0  0  0  0
  1  7  1  0  0  0  0
  1  8  1  0  0  0  0
  3  9  1  0  0  0  0
  3 10  1  0  0  0  0
  3 11  1  0  0  0  0
  4 12  1  0  0  0  0
  4 13  1  0  0  0  0
  4 14  1  0  0  0  0
  5 15  1  0  0  0  0
M  END
> <id>
1660

> <casrn>
75-65-0

> <smiles (First)>


> <Molecular weight>
74.1216049194336

> <name>
2-methylpropan-2-ol

> <Outcome>
0

> <Molecule (RDKit Mol) (InChI Code)>
InChI=1S/C4H10O/c1-4(2,3)5/h5H,1-3H3

> <reference>
ECHA

> <molecule_form>
V

$$$$

  Mrv1812 01171911372D          

 42 42  0  0  0  0            999 V2000
   -1.4297   -4.1238    0.0000 C   0  0  0  0  0  0  0  0  0  0  0  0
   -0.7152   -3.7113    0.0000 C   0  0  0  0  0  0  0  0  0  0  0  0
   -0.7152   -2.8863    0.0000 C   0  0  0  0  0  0  0  0  0  0  0  0
   -0.0007   -2.4738    0.0000 C   0  0  0  0  0  0  0  0  0  0  0  0
   -0.0007   -1.6488    0.0000 O   0  0  0  0  0  0  0  0  0  0  0  0
    0.7137   -1.2363    0.0000 C   0  0  0  0  0  0  0  0  0  0  0  0
    1.4282   -1.6488    0.0000 O   0  0  0  0  0  0  0  0  0  0  0  0
    0.7137   -0.4113    0.0000 C   0  0  0  0  0  0  0  0  0  0  0  0
   -0.0007    0.0012    0.0000 C   0  0  0  0  0  0  0  0  0  0  0  0
   -0.0007    0.8262    0.0000 C   0  0  0  0  0  0  0  0  0  0  0  0
    0.7137    1.2387    0.0000 C   0  0  0  0  0  0  0  0  0  0  0  0
    1.4282    0.8262    0.0000 C   0  0  0  0  0  0  0  0  0  0  0  0
    1.4282    0.0012    0.0000 C   0  0  0  0  0  0  0  0  0  0  0  0
    2.1427   -0.4113    0.0000 C   0  0  0  0  0  0  0  0  0  0  0  0
    2.1427   -1.2363    0.0000 O   0  0  0  0  0  0  0  0  0  0  0  0
    2.8572    0.0012    0.0000 O   0  0  0  0  0  0  0  0  0  0  0  0
    3.5716   -0.4113    0.0000 C   0  0  0  0  0  0  0  0  0  0  0  0
    4.2861    0.0012    0.0000 C   0  0  0  0  0  0  0  0  0  0  0  0
    5.0006   -0.4113    0.0000 C   0  0  0  0  0  0  0  0  0  0  0  0
    5.7150    0.0012    0.0000 C   0  0  0  0  0  0  0  0  0  0  0  0
   -1.8422   -3.4093    0.0000 H   0  0  0  0  0  0  0  0  0  0  0  0
   -2.1441   -4.5363    0.0000 H   0  0  0  0  0  0  0  0  0  0  0  0
   -1.0172   -4.8382    0.0000 H   0  0  0  0  0  0  0  0  0  0  0  0
   -0.2619   -4.4005    0.0000 H   0  0  0  0  0  0  0  0  0  0  0  0
    0.1084   -3.7592    0.0000 H   0  0  0  0  0  0  0  0  0  0  0  0
   -1.1685   -2.1970    0.0000 H   0  0  0  0  0  0  0  0  0  0  0  0
   -1.5388   -2.8383    0.0000 H   0  0  0  0  0  0  0  0  0  0  0  0
    0.4526   -3.1630    0.0000 H   0  0  0  0  0  0  0  0  0  0  0  0
    0.8229   -2.5217    0.0000 H   0  0  0  0  0  0  0  0  0  0  0  0
   -0.7152   -0.4113    0.0000 H   0  0  0  0  0  0  0  0  0  0  0  0
   -0.7152    1.2387    0.0000 H   0  0  0  0  0  0  0  0  0  0  0  0
    0.7137    2.0637    0.0000 H   0  0  0  0  0  0  0  0  0  0  0  0
    2.1427    1.2387    0.0000 H   0  0  0  0  0  0  0  0  0  0  0  0
    3.2014   -1.1485    0.0000 H   0  0  0  0  0  0  0  0  0  0  0  0
    3.9419   -1.1485    0.0000 H   0  0  0  0  0  0  0  0  0  0  0  0
    4.6564    0.7385    0.0000 H   0  0  0  0  0  0  0  0  0  0  0  0
    3.9158    0.7385    0.0000 H   0  0  0  0  0  0  0  0  0  0  0  0
    4.6303   -1.1485    0.0000 H   0  0  0  0  0  0  0  0  0  0  0  0
    5.3708   -1.1485    0.0000 H   0  0  0  0  0  0  0  0  0  0  0  0
    6.1275   -0.7132    0.0000 H   0  0  0  0  0  0  0  0  0  0  0  0
    6.4295    0.4137    0.0000 H   0  0  0  0  0  0  0  0  0  0  0  0
    5.3025    0.7157    0.0000 H   0  0  0  0  0  0  0  0  0  0  0  0
  1  2  1  0  0  0  0
  2  3  1  0  0  0  0
  3  4  1  0  0  0  0
  4  5  1  0  0  0  0
  5  6  1  0  0  0  0
  6  7  2  0  0  0  0
  6  8  1  0  0  0  0
  8  9  4  0  0  0  0
  9 10  4  0  0  0  0
 10 11  4  0  0  0  0
 11 12  4  0  0  0  0
 12 13  4  0  0  0  0
  8 13  4  0  0  0  0
 13 14  1  0  0  0  0
 14 15  2  0  0  0  0
 14 16  1  0  0  0  0
 16 17  1  0  0  0  0
 17 18  1  0  0  0  0
 18 19  1  0  0  0  0
 19 20  1  0  0  0  0
  1 21  1  0  0  0  0
  1 22  1  0  0  0  0
  1 23  1  0  0  0  0
  2 24  1  0  0  0  0
  2 25  1  0  0  0  0
  3 26  1  0  0  0  0
  3 27  1  0  0  0  0
  4 28  1  0  0  0  0
  4 29  1  0  0  0  0
  9 30  1  0  0  0  0
 10 31  1  0  0  0  0
 11 32  1  0  0  0  0
 12 33  1  0  0  0  0
 17 34  1  0  0  0  0
 17 35  1  0  0  0  0
 18 36  1  0  0  0  0
 18 37  1  0  0  0  0
 19 38  1  0  0  0  0
 19 39  1  0  0  0  0
 20 40  1  0  0  0  0
 20 41  1  0  0  0  0
 20 42  1  0  0  0  0
M  END
> <id>
925

> <casrn>
84-74-2

> <smiles (First)>


> <Molecular weight>
278.3434753417969

> <name>
1,2-dibutyl benzene-1,2-dicarboxylate

> <Outcome>
0

> <Molecule (RDKit Mol) (InChI Code)>
InChI=1S/C16H22O4/c1-3-5-11-19-15(17)13-9-7-8-10-14(13)16(18)20-12-6-4-2/h7-10H,3-6,11-12H2,1-2H3

> <reference>
ECHA

> <molecule_form>
A

$$$$

  Mrv1812 01171911372D          

 16 16  0  0  0  0            999 V2000
    0.7145    2.0625    0.0000 N   0  0  0  0  0  0  0  0  0  0  0  0
    0.7145    1.2375    0.0000 C   0  0  0  0  0  0  0  0  0  0  0  0
    1.4289    0.8250    0.0000 C   0  0  0  0  0  0  0  0  0  0  0  0
    1.4289   -0.0000    0.0000 C   0  0  0  0  0  0  0  0  0  0  0  0
    0.7145   -0.4125    0.0000 C   0  0  0  0  0  0  0  0  0  0  0  0
    0.0000   -0.0000    0.0000 C   0  0  0  0  0  0  0  0  0  0  0  0
    0.0000    0.8250    0.0000 C   0  0  0  0  0  0  0  0  0  0  0  0
   -0.7145    1.2375    0.0000 N   0  0  0  0  0  0  0  0  0  0  0  0
   -1.4289    0.8250    0.0000 O   0  0  0  0  0  0  0  0  0  0  0  0
   -0.7145    2.0625    0.0000 O   0  0  0  0  0  0  0  0  0  0  0  0
    1.4289    2.4750    0.0000 H   0  0  0  0  0  0  0  0  0  0  0  0
    0.0000    2.4750    0.0000 H   0  0  0  0  0  0  0  0  0  0  0  0
    2.1434    1.2375    0.0000 H   0  0  0  0  0  0  0  0  0  0  0  0
    2.1434   -0.4125    0.0000 H   0  0  0  0  0  0  0  0  0  0  0  0
    0.7145   -1.2375    0.0000 H   0  0  0  0  0  0  0  0  0  0  0  0
   -0.7145   -0.4125    0.0000 H   0  0  0  0  0  0  0  0  0  0  0  0
  1  2  1  0  0  0  0
  2  3  4  0  0  0  0
  3  4  4  0  0  0  0
  4  5  4  0  0  0  0
  5  6  4  0  0  0  0
  6  7  4  0  0  0  0
  2  7  4  0  0  0  0
  7  8  1  0  0  0  0
  8  9  2  0  0  0  0
  8 10  2  0  0  0  0
  1 11  1  0  0  0  0
  1 12  1  0  0  0  0
  3 13  1  0  0  0  0
  4 14  1  0  0  0  0
  5 15  1  0  0  0  0
  6 16  1  0  0  0  0
M  END
> <id>
1683

> <casrn>
88-74-4

> <smiles (First)>


> <Molecular weight>
138.12403869628906

> <name>
2-nitroaniline

> <Outcome>
0

> <Molecule (RDKit Mol) (InChI Code)>
InChI=1S/C6H6N2O2/c7-5-3-1-2-4-6(5)8(9)10/h1-4H,7H2

> <reference>
ECHA

> <molecule_form>
A

$$$$

  Mrv1812 01171911372D          

 26 25  0  0  0  0            999 V2000
    2.8934    1.8930    0.0000 C   0  0  0  0  0  0  0  0  0  0  0  0
    2.1789    1.4805    0.0000 C   0  0  0  0  0  0  0  0  0  0  0  0
    1.4644    1.8930    0.0000 O   0  0  0  0  0  0  0  0  0  0  0  0
    0.7499    1.4805    0.0000 P   0  0  0  0  0  0  0  0  0  0  0  0
    0.3374    2.1949    0.0000 O   0  0  0  0  0  0  0  0  0  0  0  0
    0.0355    1.0680    0.0000 O   0  0  0  0  0  0  0  0  0  0  0  0
   -0.6790    1.4805    0.0000 C   0  0  0  0  0  0  0  0  0  0  0  0
   -1.3935    1.0680    0.0000 C   0  0  0  0  0  0  0  0  0  0  0  0
    1.1624    0.7660    0.0000 O   0  0  0  0  0  0  0  0  0  0  0  0
    0.7499    0.0515    0.0000 C   0  0  0  0  0  0  0  0  0  0  0  0
   -0.0751    0.0515    0.0000 C   0  0  0  0  0  0  0  0  0  0  0  0
    3.3059    1.1785    0.0000 H   0  0  0  0  0  0  0  0  0  0  0  0
    3.6078    2.3055    0.0000 H   0  0  0  0  0  0  0  0  0  0  0  0
    2.4809    2.6074    0.0000 H   0  0  0  0  0  0  0  0  0  0  0  0
    1.8086    0.7432    0.0000 H   0  0  0  0  0  0  0  0  0  0  0  0
    2.5491    0.7432    0.0000 H   0  0  0  0  0  0  0  0  0  0  0  0
   -0.3087    2.2177    0.0000 H   0  0  0  0  0  0  0  0  0  0  0  0
   -1.0493    2.2177    0.0000 H   0  0  0  0  0  0  0  0  0  0  0  0
   -1.8060    1.7824    0.0000 H   0  0  0  0  0  0  0  0  0  0  0  0
   -2.1079    0.6555    0.0000 H   0  0  0  0  0  0  0  0  0  0  0  0
   -0.9810    0.3535    0.0000 H   0  0  0  0  0  0  0  0  0  0  0  0
    0.7979   -0.7721    0.0000 H   0  0  0  0  0  0  0  0  0  0  0  0
    1.4392   -0.4018    0.0000 H   0  0  0  0  0  0  0  0  0  0  0  0
   -0.5032   -0.6537    0.0000 H   0  0  0  0  0  0  0  0  0  0  0  0
    0.1082   -0.7529    0.0000 H   0  0  0  0  0  0  0  0  0  0  0  0
    0.0571    0.8659    0.0000 H   0  0  0  0  0  0  0  0  0  0  0  0
  1  2  1  0  0  0  0
  2  3  1  0  0  0  0
  3  4  1  0  0  0  0
  4  5  2  0  0  0  0
  4  6  1  0  0  0  0
  6  7  1  0  0  0  0
  7  8  1  0  0  0  0
  4  9  1  0  0  0  0
  9 10  1  0  0  0  0
 10 11  1  0  0  0  0
  1 12  1  0  0  0  0
  1 13  1  0  0  0  0
  1 14  1  0  0  0  0
  2 15  1  0  0  0  0
  2 16  1  0  0  0  0
  7 17  1  0  0  0  0
  7 18  1  0  0  0  0
  8 19  1  0  0  0  0
  8 20  1  0  0  0  0
  8 21  1  0  0  0  0
 10 22  1  0  0  0  0
 10 23  1  0  0  0  0
 11 24  1  0  0  0  0
 11 25  1  0  0  0  0
 11 26  1  0  0  0  0
M  END
> <id>
4064

> <casrn>
78-40-0

> <smiles (First)>


> <Molecular weight>
182.1546630859375

> <name>
triethyl phosphate

> <Outcome>
0

> <Molecule (RDKit Mol) (InChI Code)>
InChI=1S/C6H15O4P/c1-4-8-11(7,9-5-2)10-6-3/h4-6H2,1-3H3

> <reference>
ECHA

> <molecule_form>
A

$$$$

  Mrv1812 01171911372D          

 24 24  0  0  0  0            999 V2000
   -0.0000    2.4750    0.0000 C   0  0  0  0  0  0  0  0  0  0  0  0
    0.7145    2.0625    0.0000 C   0  0  0  0  0  0  0  0  0  0  0  0
    0.7145    1.2375    0.0000 C   0  0  0  0  0  0  0  0  0  0  0  0
    1.4289    0.8250    0.0000 C   0  0  0  0  0  0  0  0  0  0  0  0
    1.4289   -0.0000    0.0000 C   0  0  0  0  0  0  0  0  0  0  0  0
    0.7145   -0.4125    0.0000 C   0  0  0  0  0  0  0  0  0  0  0  0
    0.7145   -1.2375    0.0000 C   0  0  0  0  0  0  0  0  0  0  0  0
    1.4289   -1.6500    0.0000 C   0  0  0  0  0  0  0  0  0  0  0  0
   -0.0000   -0.0000    0.0000 C   0  0  0  0  0  0  0  0  0  0  0  0
   -0.0000    0.8250    0.0000 C   0  0  0  0  0  0  0  0  0  0  0  0
    0.4125    3.1895    0.0000 H   0  0  0  0  0  0  0  0  0  0  0  0
   -0.7145    2.8875    0.0000 H   0  0  0  0  0  0  0  0  0  0  0  0
   -0.4125    1.7605    0.0000 H   0  0  0  0  0  0  0  0  0  0  0  0
    1.5381    2.1105    0.0000 H   0  0  0  0  0  0  0  0  0  0  0  0
    1.1678    2.7518    0.0000 H   0  0  0  0  0  0  0  0  0  0  0  0
    2.1434    1.2375    0.0000 H   0  0  0  0  0  0  0  0  0  0  0  0
    2.1434   -0.4125    0.0000 H   0  0  0  0  0  0  0  0  0  0  0  0
   -0.1091   -1.2855    0.0000 H   0  0  0  0  0  0  0  0  0  0  0  0
    0.2611   -1.9268    0.0000 H   0  0  0  0  0  0  0  0  0  0  0  0
    1.0164   -2.3645    0.0000 H   0  0  0  0  0  0  0  0  0  0  0  0
    2.1434   -2.0625    0.0000 H   0  0  0  0  0  0  0  0  0  0  0  0
    1.8414   -0.9355    0.0000 H   0  0  0  0  0  0  0  0  0  0  0  0
   -0.7145   -0.4125    0.0000 H   0  0  0  0  0  0  0  0  0  0  0  0
   -0.7145    1.2375    0.0000 H   0  0  0  0  0  0  0  0  0  0  0  0
  1  2  1  0  0  0  0
  2  3  1  0  0  0  0
  3  4  4  0  0  0  0
  4  5  4  0  0  0  0
  5  6  4  0  0  0  0
  6  7  1  0  0  0  0
  7  8  1  0  0  0  0
  6  9  4  0  0  0  0
  9 10  4  0  0  0  0
  3 10  4  0  0  0  0
  1 11  1  0  0  0  0
  1 12  1  0  0  0  0
  1 13  1  0  0  0  0
  2 14  1  0  0  0  0
  2 15  1  0  0  0  0
  4 16  1  0  0  0  0
  5 17  1  0  0  0  0
  7 18  1  0  0  0  0
  7 19  1  0  0  0  0
  8 20  1  0  0  0  0
  8 21  1  0  0  0  0
  8 22  1  0  0  0  0
  9 23  1  0  0  0  0
 10 24  1  0  0  0  0
M  END
> <id>
1059

> <casrn>
105-05-5

> <smiles (First)>


> <Molecular weight>
134.21817016601562

> <name>
1,4-diethylbenzene

> <Outcome>
0

> <Molecule (RDKit Mol) (InChI Code)>
InChI=1S/C10H14/c1-3-9-5-7-10(4-2)8-6-9/h5-8H,3-4H2,1-2H3

> <reference>
ECHA

> <molecule_form>
A

$$$$

  Mrv1812 01171911372D          

 18 17  0  0  0  0            999 V2000
    1.7605    1.8374    0.0000 C   0  0  0  0  0  0  0  0  0  0  0  0
    2.4750    1.4249    0.0000 C   0  0  0  0  0  0  0  0  0  0  0  0
    3.1895    1.8374    0.0000 C   0  0  0  0  0  0  0  0  0  0  0  0
    3.9039    1.4249    0.0000 N   0  0  0  0  0  0  0  0  0  0  0  0
    4.6184    1.8374    0.0000 C   0  0  0  0  0  0  0  0  0  0  0  0
    5.3329    1.4249    0.0000 C   0  0  0  0  0  0  0  0  0  0  0  0
    6.0474    1.8374    0.0000 C   0  0  0  0  0  0  0  0  0  0  0  0
    1.7605    2.6624    0.0000 H   0  0  0  0  0  0  0  0  0  0  0  0
    1.0461    1.4249    0.0000 H   0  0  0  0  0  0  0  0  0  0  0  0
    2.4750    0.5999    0.0000 H   0  0  0  0  0  0  0  0  0  0  0  0
    3.5597    2.5747    0.0000 H   0  0  0  0  0  0  0  0  0  0  0  0
    2.8192    2.5747    0.0000 H   0  0  0  0  0  0  0  0  0  0  0  0
    3.9039    0.5999    0.0000 H   0  0  0  0  0  0  0  0  0  0  0  0
    4.9887    2.5747    0.0000 H   0  0  0  0  0  0  0  0  0  0  0  0
    4.2482    2.5747    0.0000 H   0  0  0  0  0  0  0  0  0  0  0  0
    5.3329    0.5999    0.0000 H   0  0  0  0  0  0  0  0  0  0  0  0
    6.7618    1.4249    0.0000 H   0  0  0  0  0  0  0  0  0  0  0  0
    6.0474    2.6624    0.0000 H   0  0  0  0  0  0  0  0  0  0  0  0
  1  2  2  0  0  0  0
  2  3  1  0  0  0  0
  3  4  1  0  0  0  0
  4  5  1  0  0  0  0
  5  6  1  0  0  0  0
  6  7  2  0  0  0  0
  1  8  1  0  0  0  0
  1  9  1  0  0  0  0
  2 10  1  0  0  0  0
  3 11  1  0  0  0  0
  3 12  1  0  0  0  0
  4 13  1  0  0  0  0
  5 14  1  0  0  0  0
  5 15  1  0  0  0  0
  6 16  1  0  0  0  0
  7 17  1  0  0  0  0
  7 18  1  0  0  0  0
M  END
> <id>
2660

> <casrn>
124-02-7

> <smiles (First)>


> <Molecular weight>
97.15824127197266

> <name>
bis(prop-2-en-1-yl)amine

> <Outcome>
1

> <Molecule (RDKit Mol) (InChI Code)>
InChI=1S/C6H11N/c1-3-5-7-6-4-2/h3-4,7H,1-2,5-6H2

> <reference>
ECHA

> <molecule_form>
V

$$$$

  Mrv1812 01171911372D          

 21 21  0  0  0  0            999 V2000
    0.0000    3.3000    0.0000 N   0  0  0  0  0  0  0  0  0  0  0  0
    0.0000    2.4750    0.0000 C   0  0  0  0  0  0  0  0  0  0  0  0
    0.7145    2.0625    0.0000 C   0  0  0  0  0  0  0  0  0  0  0  0
    0.7145    1.2375    0.0000 C   0  0  0  0  0  0  0  0  0  0  0  0
    1.4289    0.8250    0.0000 C   0  0  0  0  0  0  0  0  0  0  0  0
    1.4289   -0.0000    0.0000 C   0  0  0  0  0  0  0  0  0  0  0  0
    0.7145   -0.4125    0.0000 C   0  0  0  0  0  0  0  0  0  0  0  0
    0.7145   -1.2375    0.0000 O   0  0  0  0  0  0  0  0  0  0  0  0
    0.0000    0.0000    0.0000 C   0  0  0  0  0  0  0  0  0  0  0  0
    0.0000    0.8250    0.0000 C   0  0  0  0  0  0  0  0  0  0  0  0
    0.7145    3.7125    0.0000 H   0  0  0  0  0  0  0  0  0  0  0  0
   -0.7145    3.7125    0.0000 H   0  0  0  0  0  0  0  0  0  0  0  0
   -0.8236    2.4270    0.0000 H   0  0  0  0  0  0  0  0  0  0  0  0
   -0.4533    1.7857    0.0000 H   0  0  0  0  0  0  0  0  0  0  0  0
    1.5381    2.1105    0.0000 H   0  0  0  0  0  0  0  0  0  0  0  0
    1.1678    2.7518    0.0000 H   0  0  0  0  0  0  0  0  0  0  0  0
    2.1434    1.2375    0.0000 H   0  0  0  0  0  0  0  0  0  0  0  0
    2.1434   -0.4125    0.0000 H   0  0  0  0  0  0  0  0  0  0  0  0
    0.0000   -1.6500    0.0000 H   0  0  0  0  0  0  0  0  0  0  0  0
   -0.7145   -0.4125    0.0000 H   0  0  0  0  0  0  0  0  0  0  0  0
   -0.7145    1.2375    0.0000 H   0  0  0  0  0  0  0  0  0  0  0  0
  1  2  1  0  0  0  0
  2  3  1  0  0  0  0
  3  4  1  0  0  0  0
  4  5  4  0  0  0  0
  5  6  4  0  0  0  0
  6  7  4  0  0  0  0
  7  8  1  0  0  0  0
  7  9  4  0  0  0  0
  9 10  4  0  0  0  0
  4 10  4  0  0  0  0
  1 11  1  0  0  0  0
  1 12  1  0  0  0  0
  2 13  1  0  0  0  0
  2 14  1  0  0  0  0
  3 15  1  0  0  0  0
  3 16  1  0  0  0  0
  5 17  1  0  0  0  0
  6 18  1  0  0  0  0
  8 19  1  0  0  0  0
  9 20  1  0  0  0  0
 10 21  1  0  0  0  0
M  END
> <id>
1815

> <casrn>
51-67-2

> <smiles (First)>


> <Molecular weight>
137.17904663085938

> <name>
4-(2-aminoethyl)phenol

> <Outcome>
0

> <Molecule (RDKit Mol) (InChI Code)>
InChI=1S/C8H11NO/c9-6-5-7-1-3-8(10)4-2-7/h1-4,10H,5-6,9H2

> <reference>
ECHA

> <molecule_form>
A

$$$$

  Mrv1812 01171911372D          

 70 69  0  0  0  0            999 V2000
   -3.7023    0.1808    0.0000 C   0  0  0  0  0  0  0  0  0  0  0  0
   -2.9879    0.5933    0.0000 C   0  0  0  0  0  0  0  0  0  0  0  0
   -2.2734    0.1808    0.0000 O   0  0  0  0  0  0  0  0  0  0  0  0
   -1.5589    0.5933    0.0000 Si  0  0  0  0  0  0  0  0  0  0  0  0
   -0.8445    1.0058    0.0000 C   0  0  0  0  0  0  0  0  0  0  0  0
   -0.1300    0.5933    0.0000 C   0  0  0  0  0  0  0  0  0  0  0  0
    0.5845    1.0058    0.0000 C   0  0  0  0  0  0  0  0  0  0  0  0
    1.2990    0.5933    0.0000 S   0  0  0  0  0  0  0  0  0  0  0  0
    2.0134    1.0058    0.0000 S   0  0  0  0  0  0  0  0  0  0  0  0
    2.7279    0.5933    0.0000 C   0  0  0  0  0  0  0  0  0  0  0  0
    3.4424    1.0058    0.0000 C   0  0  0  0  0  0  0  0  0  0  0  0
    4.1568    0.5933    0.0000 C   0  0  0  0  0  0  0  0  0  0  0  0
    4.8713    1.0058    0.0000 Si  0  0  0  0  0  0  0  0  0  0  0  0
    5.5858    1.4183    0.0000 O   0  0  0  0  0  0  0  0  0  0  0  0
    6.3003    1.0058    0.0000 C   0  0  0  0  0  0  0  0  0  0  0  0
    7.0147    1.4183    0.0000 C   0  0  0  0  0  0  0  0  0  0  0  0
    5.2838    0.2914    0.0000 O   0  0  0  0  0  0  0  0  0  0  0  0
    6.1088    0.2914    0.0000 C   0  0  0  0  0  0  0  0  0  0  0  0
    6.5213   -0.4231    0.0000 C   0  0  0  0  0  0  0  0  0  0  0  0
    4.4588    1.7203    0.0000 O   0  0  0  0  0  0  0  0  0  0  0  0
    4.8713    2.4348    0.0000 C   0  0  0  0  0  0  0  0  0  0  0  0
    5.6963    2.4348    0.0000 C   0  0  0  0  0  0  0  0  0  0  0  0
   -1.1464   -0.1211    0.0000 O   0  0  0  0  0  0  0  0  0  0  0  0
   -0.3214   -0.1211    0.0000 C   0  0  0  0  0  0  0  0  0  0  0  0
    0.0911   -0.8356    0.0000 C   0  0  0  0  0  0  0  0  0  0  0  0
   -1.9714    1.3078    0.0000 O   0  0  0  0  0  0  0  0  0  0  0  0
   -1.5589    2.0223    0.0000 C   0  0  0  0  0  0  0  0  0  0  0  0
   -0.7339    2.0223    0.0000 C   0  0  0  0  0  0  0  0  0  0  0  0
   -4.1148    0.8953    0.0000 H   0  0  0  0  0  0  0  0  0  0  0  0
   -4.4168   -0.2317    0.0000 H   0  0  0  0  0  0  0  0  0  0  0  0
   -3.2898   -0.5336    0.0000 H   0  0  0  0  0  0  0  0  0  0  0  0
   -2.6176    1.3306    0.0000 H   0  0  0  0  0  0  0  0  0  0  0  0
   -3.3581    1.3306    0.0000 H   0  0  0  0  0  0  0  0  0  0  0  0
   -0.4742    1.7431    0.0000 H   0  0  0  0  0  0  0  0  0  0  0  0
   -1.2147    1.7431    0.0000 H   0  0  0  0  0  0  0  0  0  0  0  0
    0.5245    0.0911    0.0000 H   0  0  0  0  0  0  0  0  0  0  0  0
   -0.1300    1.4183    0.0000 H   0  0  0  0  0  0  0  0  0  0  0  0
    1.2165    1.5361    0.0000 H   0  0  0  0  0  0  0  0  0  0  0  0
    0.7277    1.8183    0.0000 H   0  0  0  0  0  0  0  0  0  0  0  0
    2.3576   -0.1439    0.0000 H   0  0  0  0  0  0  0  0  0  0  0  0
    3.0982   -0.1439    0.0000 H   0  0  0  0  0  0  0  0  0  0  0  0
    3.8126    1.7431    0.0000 H   0  0  0  0  0  0  0  0  0  0  0  0
    3.0721    1.7431    0.0000 H   0  0  0  0  0  0  0  0  0  0  0  0
    3.7866   -0.1439    0.0000 H   0  0  0  0  0  0  0  0  0  0  0  0
    4.5271   -0.1439    0.0000 H   0  0  0  0  0  0  0  0  0  0  0  0
    6.9548    0.5036    0.0000 H   0  0  0  0  0  0  0  0  0  0  0  0
    6.3003    1.8308    0.0000 H   0  0  0  0  0  0  0  0  0  0  0  0
    7.7081    0.9713    0.0000 H   0  0  0  0  0  0  0  0  0  0  0  0
    7.7423    1.8072    0.0000 H   0  0  0  0  0  0  0  0  0  0  0  0
    7.0282    2.2432    0.0000 H   0  0  0  0  0  0  0  0  0  0  0  0
    5.6066    0.9459    0.0000 H   0  0  0  0  0  0  0  0  0  0  0  0
    5.6963   -0.4231    0.0000 H   0  0  0  0  0  0  0  0  0  0  0  0
    6.3078   -1.2200    0.0000 H   0  0  0  0  0  0  0  0  0  0  0  0
    7.2358   -0.8356    0.0000 H   0  0  0  0  0  0  0  0  0  0  0  0
    7.1047    0.1603    0.0000 H   0  0  0  0  0  0  0  0  0  0  0  0
    4.8233    3.2584    0.0000 H   0  0  0  0  0  0  0  0  0  0  0  0
    4.1820    2.8881    0.0000 H   0  0  0  0  0  0  0  0  0  0  0  0
    6.3046    2.9921    0.0000 H   0  0  0  0  0  0  0  0  0  0  0  0
    5.6603    3.2590    0.0000 H   0  0  0  0  0  0  0  0  0  0  0  0
    5.3806    1.6726    0.0000 H   0  0  0  0  0  0  0  0  0  0  0  0
   -0.8237    0.5334    0.0000 H   0  0  0  0  0  0  0  0  0  0  0  0
   -0.7339   -0.8356    0.0000 H   0  0  0  0  0  0  0  0  0  0  0  0
   -0.1225   -1.6325    0.0000 H   0  0  0  0  0  0  0  0  0  0  0  0
    0.8055   -1.2481    0.0000 H   0  0  0  0  0  0  0  0  0  0  0  0
    0.6744   -0.2522    0.0000 H   0  0  0  0  0  0  0  0  0  0  0  0
   -1.6069    2.8459    0.0000 H   0  0  0  0  0  0  0  0  0  0  0  0
   -2.2482    2.4756    0.0000 H   0  0  0  0  0  0  0  0  0  0  0  0
    0.0752    2.1832    0.0000 H   0  0  0  0  0  0  0  0  0  0  0  0
   -0.4182    2.7845    0.0000 H   0  0  0  0  0  0  0  0  0  0  0  0
   -1.1923    2.7082    0.0000 H   0  0  0  0  0  0  0  0  0  0  0  0
  1  2  1  0  0  0  0
  2  3  1  0  0  0  0
  3  4  1  0  0  0  0
  4  5  1  0  0  0  0
  5  6  1  0  0  0  0
  6  7  1  0  0  0  0
  7  8  1  0  0  0  0
  8  9  1  0  0  0  0
  9 10  1  0  0  0  0
 10 11  1  0  0  0  0
 11 12  1  0  0  0  0
 12 13  1  0  0  0  0
 13 14  1  0  0  0  0
 14 15  1  0  0  0  0
 15 16  1  0  0  0  0
 13 17  1  0  0  0  0
 17 18  1  0  0  0  0
 18 19  1  0  0  0  0
 13 20  1  0  0  0  0
 20 21  1  0  0  0  0
 21 22  1  0  0  0  0
  4 23  1  0  0  0  0
 23 24  1  0  0  0  0
 24 25  1  0  0  0  0
  4 26  1  0  0  0  0
 26 27  1  0  0  0  0
 27 28  1  0  0  0  0
  1 29  1  0  0  0  0
  1 30  1  0  0  0  0
  1 31  1  0  0  0  0
  2 32  1  0  0  0  0
  2 33  1  0  0  0  0
  5 34  1  0  0  0  0
  5 35  1  0  0  0  0
  6 36  1  0  0  0  0
  6 37  1  0  0  0  0
  7 38  1  0  0  0  0
  7 39  1  0  0  0  0
 10 40  1  0  0  0  0
 10 41  1  0  0  0  0
 11 42  1  0  0  0  0
 11 43  1  0  0  0  0
 12 44  1  0  0  0  0
 12 45  1  0  0  0  0
 15 46  1  0  0  0  0
 15 47  1  0  0  0  0
 16 48  1  0  0  0  0
 16 49  1  0  0  0  0
 16 50  1  0  0  0  0
 18 51  1  0  0  0  0
 18 52  1  0  0  0  0
 19 53  1  0  0  0  0
 19 54  1  0  0  0  0
 19 55  1  0  0  0  0
 21 56  1  0  0  0  0
 21 57  1  0  0  0  0
 22 58  1  0  0  0  0
 22 59  1  0  0  0  0
 22 60  1  0  0  0  0
 24 61  1  0  0  0  0
 24 62  1  0  0  0  0
 25 63  1  0  0  0  0
 25 64  1  0  0  0  0
 25 65  1  0  0  0  0
 27 66  1  0  0  0  0
 27 67  1  0  0  0  0
 28 68  1  0  0  0  0
 28 69  1  0  0  0  0
 28 70  1  0  0  0  0
M  END
> <id>
1813

> <casrn>
56706-10-6

> <smiles (First)>


> <Molecular weight>
474.823486328125

> <name>
4,4,13,13-tetraethoxy-3,14-dioxa-8,9-dithia-4,13-disilahexadecane

> <Outcome>
0

> <Molecule (RDKit Mol) (InChI Code)>
InChI=1S/C18H42O6S2Si2/c1-7-19-27(20-8-2,21-9-3)17-13-15-25-26-16-14-18-28(22-10-4,23-11-5)24-12-6/h7-18H2,1-6H3

> <reference>
ECHA

> <molecule_form>
A

$$$$

  Mrv1812 01171911372D          

 72 80  0  0  0  0            999 V2000
    6.8211    3.0789    0.0000 C   0  0  0  0  0  0  0  0  0  0  0  0
    6.4086    2.3645    0.0000 C   0  0  0  0  0  0  0  0  0  0  0  0
    6.8211    1.6500    0.0000 C   0  0  0  0  0  0  0  0  0  0  0  0
    6.4086    0.9355    0.0000 C   0  0  0  0  0  0  0  0  0  0  0  0
    6.8211    0.2211    0.0000 C   0  0  0  0  0  0  0  0  0  0  0  0
    5.5836    0.9355    0.0000 C   0  0  0  0  0  0  0  0  0  0  0  0
    5.1711    1.6500    0.0000 C   0  0  0  0  0  0  0  0  0  0  0  0
    4.3461    1.6500    0.0000 N   0  0  0  0  0  0  0  0  0  0  0  0
    3.9336    0.9355    0.0000 C   0  0  0  0  0  0  0  0  0  0  0  0
    4.3461    0.2211    0.0000 O   0  0  0  0  0  0  0  0  0  0  0  0
    3.1086    0.9355    0.0000 C   0  0  0  0  0  0  0  0  0  0  0  0
    2.6961    0.2211    0.0000 C   0  0  0  0  0  0  0  0  0  0  0  0
    1.8711    0.2211    0.0000 C   0  0  0  0  0  0  0  0  0  0  0  0
    1.4586    0.9355    0.0000 C   0  0  0  0  0  0  0  0  0  0  0  0
    0.6336    0.9355    0.0000 C   0  0  0  0  0  0  0  0  0  0  0  0
    0.2211    0.2211    0.0000 C   0  0  0  0  0  0  0  0  0  0  0  0
   -0.6039    0.2211    0.0000 C   0  0  0  0  0  0  0  0  0  0  0  0
   -1.0164    0.9355    0.0000 C   0  0  0  0  0  0  0  0  0  0  0  0
   -1.8414    0.9355    0.0000 C   0  0  0  0  0  0  0  0  0  0  0  0
   -2.2539    0.2211    0.0000 O   0  0  0  0  0  0  0  0  0  0  0  0
   -2.2539    1.6500    0.0000 N   0  0  0  0  0  0  0  0  0  0  0  0
   -3.0789    1.6500    0.0000 C   0  0  0  0  0  0  0  0  0  0  0  0
   -3.4914    0.9355    0.0000 C   0  0  0  0  0  0  0  0  0  0  0  0
   -4.3164    0.9355    0.0000 C   0  0  0  0  0  0  0  0  0  0  0  0
   -4.7289    0.2211    0.0000 C   0  0  0  0  0  0  0  0  0  0  0  0
   -4.7289    1.6500    0.0000 C   0  0  0  0  0  0  0  0  0  0  0  0
   -4.3164    2.3645    0.0000 C   0  0  0  0  0  0  0  0  0  0  0  0
   -4.7289    3.0789    0.0000 C   0  0  0  0  0  0  0  0  0  0  0  0
   -3.4914    2.3645    0.0000 C   0  0  0  0  0  0  0  0  0  0  0  0
   -1.8414    2.3645    0.0000 C   0  0  0  0  0  0  0  0  0  0  0  0
   -2.2539    3.0789    0.0000 O   0  0  0  0  0  0  0  0  0  0  0  0
   -1.0164    2.3645    0.0000 C   0  0  0  0  0  0  0  0  0  0  0  0
   -0.6039    3.0789    0.0000 C   0  0  0  0  0  0  0  0  0  0  0  0
    0.2211    3.0789    0.0000 C   0  0  0  0  0  0  0  0  0  0  0  0
    0.6336    2.3645    0.0000 C   0  0  0  0  0  0  0  0  0  0  0  0
    1.4586    2.3645    0.0000 C   0  0  0  0  0  0  0  0  0  0  0  0
    1.8711    3.0789    0.0000 C   0  0  0  0  0  0  0  0  0  0  0  0
    2.6961    3.0789    0.0000 C   0  0  0  0  0  0  0  0  0  0  0  0
    3.1086    2.3645    0.0000 C   0  0  0  0  0  0  0  0  0  0  0  0
    3.9336    2.3645    0.0000 C   0  0  0  0  0  0  0  0  0  0  0  0
    4.3461    3.0789    0.0000 O   0  0  0  0  0  0  0  0  0  0  0  0
    2.6961    1.6500    0.0000 C   0  0  0  0  0  0  0  0  0  0  0  0
    1.8711    1.6500    0.0000 C   0  0  0  0  0  0  0  0  0  0  0  0
    0.2211    1.6500    0.0000 C   0  0  0  0  0  0  0  0  0  0  0  0
   -0.6039    1.6500    0.0000 C   0  0  0  0  0  0  0  0  0  0  0  0
    5.5836    2.3645    0.0000 C   0  0  0  0  0  0  0  0  0  0  0  0
    7.5356    2.6664    0.0000 H   0  0  0  0  0  0  0  0  0  0  0  0
    7.2336    3.7934    0.0000 H   0  0  0  0  0  0  0  0  0  0  0  0
    6.1066    3.4914    0.0000 H   0  0  0  0  0  0  0  0  0  0  0  0
    7.6461    1.6500    0.0000 H   0  0  0  0  0  0  0  0  0  0  0  0
    6.1066   -0.1914    0.0000 H   0  0  0  0  0  0  0  0  0  0  0  0
    7.2336   -0.4934    0.0000 H   0  0  0  0  0  0  0  0  0  0  0  0
    7.5356    0.6336    0.0000 H   0  0  0  0  0  0  0  0  0  0  0  0
    5.1711    0.2211    0.0000 H   0  0  0  0  0  0  0  0  0  0  0  0
    3.1086   -0.4934    0.0000 H   0  0  0  0  0  0  0  0  0  0  0  0
    1.4586   -0.4934    0.0000 H   0  0  0  0  0  0  0  0  0  0  0  0
    0.6336   -0.4934    0.0000 H   0  0  0  0  0  0  0  0  0  0  0  0
   -1.0164   -0.4934    0.0000 H   0  0  0  0  0  0  0  0  0  0  0  0
   -3.0789    0.2211    0.0000 H   0  0  0  0  0  0  0  0  0  0  0  0
   -5.4434    0.6336    0.0000 H   0  0  0  0  0  0  0  0  0  0  0  0
   -5.1414   -0.4934    0.0000 H   0  0  0  0  0  0  0  0  0  0  0  0
   -4.0144   -0.1914    0.0000 H   0  0  0  0  0  0  0  0  0  0  0  0
   -5.5539    1.6500    0.0000 H   0  0  0  0  0  0  0  0  0  0  0  0
   -4.0144    3.4914    0.0000 H   0  0  0  0  0  0  0  0  0  0  0  0
   -5.1414    3.7934    0.0000 H   0  0  0  0  0  0  0  0  0  0  0  0
   -5.4434    2.6664    0.0000 H   0  0  0  0  0  0  0  0  0  0  0  0
   -3.0789    3.0789    0.0000 H   0  0  0  0  0  0  0  0  0  0  0  0
   -1.0164    3.7934    0.0000 H   0  0  0  0  0  0  0  0  0  0  0  0
    0.6336    3.7934    0.0000 H   0  0  0  0  0  0  0  0  0  0  0  0
    1.4586    3.7934    0.0000 H   0  0  0  0  0  0  0  0  0  0  0  0
    3.1086    3.7934    0.0000 H   0  0  0  0  0  0  0  0  0  0  0  0
    5.1711    3.0789    0.0000 H   0  0  0  0  0  0  0  0  0  0  0  0
  1  2  1  0  0  0  0
  2  3  4  0  0  0  0
  3  4  4  0  0  0  0
  4  5  1  0  0  0  0
  4  6  4  0  0  0  0
  6  7  4  0  0  0  0
  7  8  1  0  0  0  0
  8  9  1  0  0  0  0
  9 10  2  0  0  0  0
  9 11  1  0  0  0  0
 11 12  4  0  0  0  0
 12 13  4  0  0  0  0
 13 14  4  0  0  0  0
 14 15  4  0  0  0  0
 15 16  4  0  0  0  0
 16 17  4  0  0  0  0
 17 18  4  0  0  0  0
 18 19  1  0  0  0  0
 19 20  2  0  0  0  0
 19 21  1  0  0  0  0
 21 22  1  0  0  0  0
 22 23  4  0  0  0  0
 23 24  4  0  0  0  0
 24 25  1  0  0  0  0
 24 26  4  0  0  0  0
 26 27  4  0  0  0  0
 27 28  1  0  0  0  0
 27 29  4  0  0  0  0
 22 29  4  0  0  0  0
 21 30  1  0  0  0  0
 30 31  2  0  0  0  0
 30 32  1  0  0  0  0
 32 33  4  0  0  0  0
 33 34  4  0  0  0  0
 34 35  4  0  0  0  0
 35 36  4  0  0  0  0
 36 37  4  0  0  0  0
 37 38  4  0  0  0  0
 38 39  4  0  0  0  0
 39 40  1  0  0  0  0
  8 40  1  0  0  0  0
 40 41  2  0  0  0  0
 39 42  4  0  0  0  0
 11 42  4  0  0  0  0
 42 43  4  0  0  0  0
 14 43  4  0  0  0  0
 36 43  4  0  0  0  0
 35 44  4  0  0  0  0
 15 44  4  0  0  0  0
 44 45  4  0  0  0  0
 18 45  4  0  0  0  0
 32 45  4  0  0  0  0
  7 46  4  0  0  0  0
  2 46  4  0  0  0  0
  1 47  1  0  0  0  0
  1 48  1  0  0  0  0
  1 49  1  0  0  0  0
  3 50  1  0  0  0  0
  5 51  1  0  0  0  0
  5 52  1  0  0  0  0
  5 53  1  0  0  0  0
  6 54  1  0  0  0  0
 12 55  1  0  0  0  0
 13 56  1  0  0  0  0
 16 57  1  0  0  0  0
 17 58  1  0  0  0  0
 23 59  1  0  0  0  0
 25 60  1  0  0  0  0
 25 61  1  0  0  0  0
 25 62  1  0  0  0  0
 26 63  1  0  0  0  0
 28 64  1  0  0  0  0
 28 65  1  0  0  0  0
 28 66  1  0  0  0  0
 29 67  1  0  0  0  0
 33 68  1  0  0  0  0
 34 69  1  0  0  0  0
 37 70  1  0  0  0  0
 38 71  1  0  0  0  0
 46 72  1  0  0  0  0
M  END
> <id>
1886

> <casrn>
4948-15-6

> <smiles (First)>


> <Molecular weight>
598.6454467773438

> <name>
7,18-bis(3,5-dimethylphenyl)-7,18-diazaheptacyclo[14.6.2.2??,????.0??,????.0????,????.0????,????.0??????,??????]hexacosa-1(22),2,4,9,11,13(23),14,16(24),20,25-decaene-6,8,17,19-tetrone

> <Outcome>
0

> <Molecule (RDKit Mol) (InChI Code)>
InChI=1S/C40H26N2O4/c1-19-13-20(2)16-23(15-19)41-37(43)29-9-5-25-27-7-11-31-36-32(40(46)42(39(31)45)24-17-21(3)14-22(4)18-24)12-8-28(34(27)36)26-6-10-30(38(41)44)35(29)33(25)26/h5-18H,1-4H3

> <reference>
ECHA

> <molecule_form>
A

$$$$

  Mrv1812 01171911372D          

 36 35  0  0  0  0            999 V2000
    2.2809    2.1644    0.0000 C   0  0  0  0  0  0  0  0  0  0  0  0
    2.9954    2.5769    0.0000 C   0  0  0  0  0  0  0  0  0  0  0  0
    3.7099    2.1644    0.0000 C   0  0  0  0  0  0  0  0  0  0  0  0
    4.4243    2.5769    0.0000 C   0  0  0  0  0  0  0  0  0  0  0  0
    5.1388    2.1644    0.0000 C   0  0  0  0  0  0  0  0  0  0  0  0
    5.1388    1.3394    0.0000 C   0  0  0  0  0  0  0  0  0  0  0  0
    5.8533    0.9269    0.0000 C   0  0  0  0  0  0  0  0  0  0  0  0
    5.8533    2.5769    0.0000 C   0  0  0  0  0  0  0  0  0  0  0  0
    6.5677    2.1644    0.0000 O   0  0  0  0  0  0  0  0  0  0  0  0
    7.2822    2.5769    0.0000 C   0  0  0  0  0  0  0  0  0  0  0  0
    7.2822    3.4019    0.0000 O   0  0  0  0  0  0  0  0  0  0  0  0
    7.9967    2.1644    0.0000 C   0  0  0  0  0  0  0  0  0  0  0  0
    8.7112    2.5769    0.0000 C   0  0  0  0  0  0  0  0  0  0  0  0
    7.9967    1.3394    0.0000 O   0  0  0  0  0  0  0  0  0  0  0  0
    1.8684    2.8789    0.0000 H   0  0  0  0  0  0  0  0  0  0  0  0
    1.5665    1.7519    0.0000 H   0  0  0  0  0  0  0  0  0  0  0  0
    2.6934    1.4500    0.0000 H   0  0  0  0  0  0  0  0  0  0  0  0
    3.3657    3.3142    0.0000 H   0  0  0  0  0  0  0  0  0  0  0  0
    2.6251    3.3142    0.0000 H   0  0  0  0  0  0  0  0  0  0  0  0
    3.3396    1.4272    0.0000 H   0  0  0  0  0  0  0  0  0  0  0  0
    4.0801    1.4272    0.0000 H   0  0  0  0  0  0  0  0  0  0  0  0
    4.7946    3.3142    0.0000 H   0  0  0  0  0  0  0  0  0  0  0  0
    4.0541    3.3142    0.0000 H   0  0  0  0  0  0  0  0  0  0  0  0
    4.4243    1.7519    0.0000 H   0  0  0  0  0  0  0  0  0  0  0  0
    4.5068    0.8091    0.0000 H   0  0  0  0  0  0  0  0  0  0  0  0
    4.9955    0.5270    0.0000 H   0  0  0  0  0  0  0  0  0  0  0  0
    6.0142    0.1178    0.0000 H   0  0  0  0  0  0  0  0  0  0  0  0
    6.6775    0.8909    0.0000 H   0  0  0  0  0  0  0  0  0  0  0  0
    6.0841    1.7190    0.0000 H   0  0  0  0  0  0  0  0  0  0  0  0
    6.2235    3.3142    0.0000 H   0  0  0  0  0  0  0  0  0  0  0  0
    5.4830    3.3142    0.0000 H   0  0  0  0  0  0  0  0  0  0  0  0
    7.9967    2.9894    0.0000 H   0  0  0  0  0  0  0  0  0  0  0  0
    8.9247    1.7800    0.0000 H   0  0  0  0  0  0  0  0  0  0  0  0
    9.5362    2.5769    0.0000 H   0  0  0  0  0  0  0  0  0  0  0  0
    8.9247    3.3738    0.0000 H   0  0  0  0  0  0  0  0  0  0  0  0
    7.2822    0.9269    0.0000 H   0  0  0  0  0  0  0  0  0  0  0  0
  1  2  1  0  0  0  0
  2  3  1  0  0  0  0
  3  4  1  0  0  0  0
  4  5  1  0  0  0  0
  5  6  1  0  0  0  0
  6  7  1  0  0  0  0
  5  8  1  0  0  0  0
  8  9  1  0  0  0  0
  9 10  1  0  0  0  0
 10 11  2  0  0  0  0
 10 12  1  0  0  0  0
 12 13  1  0  0  0  0
 12 14  1  0  0  0  0
  1 15  1  0  0  0  0
  1 16  1  0  0  0  0
  1 17  1  0  0  0  0
  2 18  1  0  0  0  0
  2 19  1  0  0  0  0
  3 20  1  0  0  0  0
  3 21  1  0  0  0  0
  4 22  1  0  0  0  0
  4 23  1  0  0  0  0
  5 24  1  0  0  0  0
  6 25  1  0  0  0  0
  6 26  1  0  0  0  0
  7 27  1  0  0  0  0
  7 28  1  0  0  0  0
  7 29  1  0  0  0  0
  8 30  1  0  0  0  0
  8 31  1  0  0  0  0
 12 32  1  0  0  0  0
 13 33  1  0  0  0  0
 13 34  1  0  0  0  0
 13 35  1  0  0  0  0
 14 36  1  0  0  0  0
M  END
> <id>
665

> <casrn>
186817-80-1

> <smiles (First)>


> <Molecular weight>
202.29058837890625

> <name>
-

> <Outcome>
0

> <Molecule (RDKit Mol) (InChI Code)>
InChI=1S/C11H22O3/c1-4-6-7-10(5-2)8-14-11(13)9(3)12/h9-10,12H,4-8H2,1-3H3

> <reference>
ECHA

> <molecule_form>
A

$$$$

  Mrv1812 01171911372D          

 20 19  0  0  0  0            999 V2000
    1.6916    1.8046    0.0000 C   0  0  0  0  0  0  0  0  0  0  0  0
    2.4061    1.3921    0.0000 S   0  0  0  0  0  0  0  0  0  0  0  0
    3.1205    1.8046    0.0000 C   0  0  0  0  0  0  0  0  0  0  0  0
    3.8350    1.3921    0.0000 C   0  0  0  0  0  0  0  0  0  0  0  0
    4.5495    1.8046    0.0000 C   0  0  0  0  0  0  0  0  0  0  0  0
    4.5495    2.6296    0.0000 N   0  0  0  0  0  0  0  0  0  0  0  0
    5.2640    1.3921    0.0000 C   0  0  0  0  0  0  0  0  0  0  0  0
    5.9784    1.8046    0.0000 O   0  0  0  0  0  0  0  0  0  0  0  0
    5.2640    0.5671    0.0000 O   0  0  0  0  0  0  0  0  0  0  0  0
    2.1041    2.5190    0.0000 H   0  0  0  0  0  0  0  0  0  0  0  0
    0.9771    2.2171    0.0000 H   0  0  0  0  0  0  0  0  0  0  0  0
    1.2791    1.0901    0.0000 H   0  0  0  0  0  0  0  0  0  0  0  0
    3.4908    2.5418    0.0000 H   0  0  0  0  0  0  0  0  0  0  0  0
    2.7503    2.5418    0.0000 H   0  0  0  0  0  0  0  0  0  0  0  0
    3.4648    0.6548    0.0000 H   0  0  0  0  0  0  0  0  0  0  0  0
    4.2053    0.6548    0.0000 H   0  0  0  0  0  0  0  0  0  0  0  0
    3.8350    2.2171    0.0000 H   0  0  0  0  0  0  0  0  0  0  0  0
    5.2867    2.9998    0.0000 H   0  0  0  0  0  0  0  0  0  0  0  0
    4.5015    3.4532    0.0000 H   0  0  0  0  0  0  0  0  0  0  0  0
    4.5495    0.1546    0.0000 H   0  0  0  0  0  0  0  0  0  0  0  0
  1  2  1  0  0  0  0
  2  3  1  0  0  0  0
  3  4  1  0  0  0  0
  4  5  1  0  0  0  0
  5  6  1  0  0  0  0
  5  7  1  0  0  0  0
  7  8  2  0  0  0  0
  7  9  1  0  0  0  0
  1 10  1  0  0  0  0
  1 11  1  0  0  0  0
  1 12  1  0  0  0  0
  3 13  1  0  0  0  0
  3 14  1  0  0  0  0
  4 15  1  0  0  0  0
  4 16  1  0  0  0  0
  5 17  1  0  0  0  0
  6 18  1  0  0  0  0
  6 19  1  0  0  0  0
  9 20  1  0  0  0  0
M  END
> <id>
184

> <casrn>
63-68-3

> <smiles (First)>


> <Molecular weight>
149.21133422851562

> <name>
(2S)-2-amino-4-(methylsulfanyl)butanoic acid

> <Outcome>
0

> <Molecule (RDKit Mol) (InChI Code)>
InChI=1S/C5H11NO2S/c1-9-3-2-4(6)5(7)8/h4H,2-3,6H2,1H3,(H,7,8)

> <reference>
ECHA

> <molecule_form>
A

$$$$

  Mrv1812 01171911372D          

 31 32  0  0  0  0            999 V2000
    2.1171   -0.4531    0.0000 N   0  0  0  0  0  0  0  0  0  0  0  0
    2.1171   -1.2781    0.0000 C   0  0  0  0  0  0  0  0  0  0  0  0
    2.8315   -1.6906    0.0000 C   0  0  0  0  0  0  0  0  0  0  0  0
    2.8315   -2.5156    0.0000 C   0  0  0  0  0  0  0  0  0  0  0  0
    2.1171   -2.9281    0.0000 C   0  0  0  0  0  0  0  0  0  0  0  0
    2.1171   -3.7531    0.0000 N   0  0  0  0  0  0  0  0  0  0  0  0
    1.4026   -4.1656    0.0000 C   0  0  0  0  0  0  0  0  0  0  0  0
    1.4026   -4.9906    0.0000 C   0  0  0  0  0  0  0  0  0  0  0  0
    0.6881   -5.4031    0.0000 C   0  0  0  0  0  0  0  0  0  0  0  0
   -0.0263   -4.9906    0.0000 C   0  0  0  0  0  0  0  0  0  0  0  0
   -0.7408   -5.4031    0.0000 S   0  0  0  0  0  0  0  0  0  0  0  0
   -1.4553   -5.8156    0.0000 N   0  0  0  0  0  0  0  0  0  0  0  0
   -1.1533   -4.6886    0.0000 O   0  0  0  0  0  0  0  0  0  0  0  0
   -0.3283   -6.1175    0.0000 O   0  0  0  0  0  0  0  0  0  0  0  0
   -0.0263   -4.1656    0.0000 C   0  0  0  0  0  0  0  0  0  0  0  0
    0.6881   -3.7531    0.0000 C   0  0  0  0  0  0  0  0  0  0  0  0
    1.4026   -2.5156    0.0000 C   0  0  0  0  0  0  0  0  0  0  0  0
    1.4026   -1.6906    0.0000 C   0  0  0  0  0  0  0  0  0  0  0  0
    2.8315   -0.0406    0.0000 H   0  0  0  0  0  0  0  0  0  0  0  0
    1.4026   -0.0406    0.0000 H   0  0  0  0  0  0  0  0  0  0  0  0
    3.5460   -1.2781    0.0000 H   0  0  0  0  0  0  0  0  0  0  0  0
    3.5460   -2.9281    0.0000 H   0  0  0  0  0  0  0  0  0  0  0  0
    2.8315   -4.1656    0.0000 H   0  0  0  0  0  0  0  0  0  0  0  0
    2.1171   -5.4031    0.0000 H   0  0  0  0  0  0  0  0  0  0  0  0
    0.6881   -6.2281    0.0000 H   0  0  0  0  0  0  0  0  0  0  0  0
   -2.1697   -5.4031    0.0000 H   0  0  0  0  0  0  0  0  0  0  0  0
   -1.4553   -6.6406    0.0000 H   0  0  0  0  0  0  0  0  0  0  0  0
   -0.7408   -3.7531    0.0000 H   0  0  0  0  0  0  0  0  0  0  0  0
    0.6881   -2.9281    0.0000 H   0  0  0  0  0  0  0  0  0  0  0  0
    0.6881   -2.1031    0.0000 H   0  0  0  0  0  0  0  0  0  0  0  0
    0.9901   -0.9761    0.0000 H   0  0  0  0  0  0  0  0  0  0  0  0
  1  2  1  0  0  0  0
  2  3  4  0  0  0  0
  3  4  4  0  0  0  0
  4  5  4  0  0  0  0
  5  6  1  0  0  0  0
  6  7  1  0  0  0  0
  7  8  4  0  0  0  0
  8  9  4  0  0  0  0
  9 10  4  0  0  0  0
 10 11  1  0  0  0  0
 11 12  1  0  0  0  0
 11 13  2  0  0  0  0
 11 14  2  0  0  0  0
 10 15  4  0  0  0  0
 15 16  4  0  0  0  0
  7 16  4  0  0  0  0
  5 17  4  0  0  0  0
 17 18  4  0  0  0  0
  2 18  4  0  0  0  0
  1 19  1  0  0  0  0
  1 20  1  0  0  0  0
  3 21  1  0  0  0  0
  4 22  1  0  0  0  0
  6 23  1  0  0  0  0
  8 24  1  0  0  0  0
  9 25  1  0  0  0  0
 12 26  1  0  0  0  0
 12 27  1  0  0  0  0
 15 28  1  0  0  0  0
 16 29  1  0  0  0  0
 17 30  1  0  0  0  0
 18 31  1  0  0  0  0
M  END
> <id>
1830

> <casrn>
16803-97-7

> <smiles (First)>


> <Molecular weight>
263.3155212402344

> <name>
4-amino-N-(4-aminophenyl)benzene-1-sulfonamide

> <Outcome>
0

> <Molecule (RDKit Mol) (InChI Code)>
InChI=1S/C12H13N3O2S/c13-9-1-3-10(4-2-9)15-11-5-7-12(8-6-11)18(14,16)17/h1-8,15H,13H2,(H2,14,16,17)

> <reference>
ECHA

> <molecule_form>
A

$$$$

  Mrv1812 01171911372D          

 54 55  0  0  0  0            999 V2000
   -3.5968   -6.9743    0.0000 C   0  0  0  0  0  0  0  0  0  0  0  0
   -2.8823   -7.3868    0.0000 C   0  0  0  0  0  0  0  0  0  0  0  0
   -2.1678   -6.9743    0.0000 C   0  0  0  0  0  0  0  0  0  0  0  0
   -1.4534   -7.3868    0.0000 C   0  0  0  0  0  0  0  0  0  0  0  0
   -0.7389   -6.9743    0.0000 O   0  0  0  0  0  0  0  0  0  0  0  0
   -0.0244   -7.3868    0.0000 C   0  0  0  0  0  0  0  0  0  0  0  0
    0.6900   -6.9743    0.0000 C   0  0  0  0  0  0  0  0  0  0  0  0
    1.4045   -7.3868    0.0000 O   0  0  0  0  0  0  0  0  0  0  0  0
    2.1190   -6.9743    0.0000 C   0  0  0  0  0  0  0  0  0  0  0  0
    2.8335   -7.3868    0.0000 C   0  0  0  0  0  0  0  0  0  0  0  0
    3.5479   -6.9743    0.0000 O   0  0  0  0  0  0  0  0  0  0  0  0
    4.2624   -7.3868    0.0000 C   0  0  0  0  0  0  0  0  0  0  0  0
    4.9769   -6.9743    0.0000 C   0  0  0  0  0  0  0  0  0  0  0  0
    4.9769   -6.1493    0.0000 C   0  0  0  0  0  0  0  0  0  0  0  0
    5.6913   -5.7368    0.0000 C   0  0  0  0  0  0  0  0  0  0  0  0
    6.4058   -6.1493    0.0000 C   0  0  0  0  0  0  0  0  0  0  0  0
    6.4058   -6.9743    0.0000 C   0  0  0  0  0  0  0  0  0  0  0  0
    5.6913   -7.3868    0.0000 C   0  0  0  0  0  0  0  0  0  0  0  0
    5.6913   -8.2118    0.0000 C   0  0  0  0  0  0  0  0  0  0  0  0
    6.4058   -8.6243    0.0000 C   0  0  0  0  0  0  0  0  0  0  0  0
    7.1203   -8.2118    0.0000 C   0  0  0  0  0  0  0  0  0  0  0  0
    7.0189   -5.5973    0.0000 O   0  0  0  0  0  0  0  0  0  0  0  0
    6.6834   -4.8436    0.0000 C   0  0  0  0  0  0  0  0  0  0  0  0
    5.8629   -4.9299    0.0000 O   0  0  0  0  0  0  0  0  0  0  0  0
   -3.1843   -6.2599    0.0000 H   0  0  0  0  0  0  0  0  0  0  0  0
   -4.3113   -6.5618    0.0000 H   0  0  0  0  0  0  0  0  0  0  0  0
   -4.0093   -7.6888    0.0000 H   0  0  0  0  0  0  0  0  0  0  0  0
   -3.2526   -8.1241    0.0000 H   0  0  0  0  0  0  0  0  0  0  0  0
   -2.5120   -8.1241    0.0000 H   0  0  0  0  0  0  0  0  0  0  0  0
   -1.7976   -6.2371    0.0000 H   0  0  0  0  0  0  0  0  0  0  0  0
   -2.5381   -6.2371    0.0000 H   0  0  0  0  0  0  0  0  0  0  0  0
   -1.8236   -8.1241    0.0000 H   0  0  0  0  0  0  0  0  0  0  0  0
   -1.0831   -8.1241    0.0000 H   0  0  0  0  0  0  0  0  0  0  0  0
   -0.3947   -8.1241    0.0000 H   0  0  0  0  0  0  0  0  0  0  0  0
    0.3458   -8.1241    0.0000 H   0  0  0  0  0  0  0  0  0  0  0  0
    1.0603   -6.2371    0.0000 H   0  0  0  0  0  0  0  0  0  0  0  0
    0.3198   -6.2371    0.0000 H   0  0  0  0  0  0  0  0  0  0  0  0
    2.4892   -6.2371    0.0000 H   0  0  0  0  0  0  0  0  0  0  0  0
    1.7487   -6.2371    0.0000 H   0  0  0  0  0  0  0  0  0  0  0  0
    2.4632   -8.1241    0.0000 H   0  0  0  0  0  0  0  0  0  0  0  0
    3.2037   -8.1241    0.0000 H   0  0  0  0  0  0  0  0  0  0  0  0
    3.8921   -8.1241    0.0000 H   0  0  0  0  0  0  0  0  0  0  0  0
    4.6327   -8.1241    0.0000 H   0  0  0  0  0  0  0  0  0  0  0  0
    4.2624   -5.7368    0.0000 H   0  0  0  0  0  0  0  0  0  0  0  0
    7.1203   -7.3868    0.0000 H   0  0  0  0  0  0  0  0  0  0  0  0
    4.8677   -8.2598    0.0000 H   0  0  0  0  0  0  0  0  0  0  0  0
    5.2380   -8.9011    0.0000 H   0  0  0  0  0  0  0  0  0  0  0  0
    6.0356   -9.3616    0.0000 H   0  0  0  0  0  0  0  0  0  0  0  0
    6.7761   -9.3616    0.0000 H   0  0  0  0  0  0  0  0  0  0  0  0
    7.1203   -9.0368    0.0000 H   0  0  0  0  0  0  0  0  0  0  0  0
    7.8348   -8.6243    0.0000 H   0  0  0  0  0  0  0  0  0  0  0  0
    7.8348   -7.7993    0.0000 H   0  0  0  0  0  0  0  0  0  0  0  0
    7.3830   -4.4065    0.0000 H   0  0  0  0  0  0  0  0  0  0  0  0
    6.7121   -4.0191    0.0000 H   0  0  0  0  0  0  0  0  0  0  0  0
  1  2  1  0  0  0  0
  2  3  1  0  0  0  0
  3  4  1  0  0  0  0
  4  5  1  0  0  0  0
  5  6  1  0  0  0  0
  6  7  1  0  0  0  0
  7  8  1  0  0  0  0
  8  9  1  0  0  0  0
  9 10  1  0  0  0  0
 10 11  1  0  0  0  0
 11 12  1  0  0  0  0
 12 13  1  0  0  0  0
 13 14  4  0  0  0  0
 14 15  4  0  0  0  0
 15 16  4  0  0  0  0
 16 17  4  0  0  0  0
 17 18  4  0  0  0  0
 13 18  4  0  0  0  0
 18 19  1  0  0  0  0
 19 20  1  0  0  0  0
 20 21  1  0  0  0  0
 16 22  1  0  0  0  0
 22 23  1  0  0  0  0
 23 24  1  0  0  0  0
 15 24  1  0  0  0  0
  1 25  1  0  0  0  0
  1 26  1  0  0  0  0
  1 27  1  0  0  0  0
  2 28  1  0  0  0  0
  2 29  1  0  0  0  0
  3 30  1  0  0  0  0
  3 31  1  0  0  0  0
  4 32  1  0  0  0  0
  4 33  1  0  0  0  0
  6 34  1  0  0  0  0
  6 35  1  0  0  0  0
  7 36  1  0  0  0  0
  7 37  1  0  0  0  0
  9 38  1  0  0  0  0
  9 39  1  0  0  0  0
 10 40  1  0  0  0  0
 10 41  1  0  0  0  0
 12 42  1  0  0  0  0
 12 43  1  0  0  0  0
 14 44  1  0  0  0  0
 17 45  1  0  0  0  0
 19 46  1  0  0  0  0
 19 47  1  0  0  0  0
 20 48  1  0  0  0  0
 20 49  1  0  0  0  0
 21 50  1  0  0  0  0
 21 51  1  0  0  0  0
 21 52  1  0  0  0  0
 23 53  1  0  0  0  0
 23 54  1  0  0  0  0
M  END
> <id>
1879

> <casrn>
51-03-6

> <smiles (First)>


> <Molecular weight>
338.4385070800781

> <name>
5-{[2-(2-butoxyethoxy)ethoxy]methyl}-6-propyl-2H-1,3-benzodioxole

> <Outcome>
0

> <Molecule (RDKit Mol) (InChI Code)>
InChI=1S/C19H30O5/c1-3-5-7-20-8-9-21-10-11-22-14-17-13-19-18(23-15-24-19)12-16(17)6-4-2/h12-13H,3-11,14-15H2,1-2H3

> <reference>
ECHA

> <molecule_form>
A

$$$$

  Mrv1812 01171911372D          

 32 31  0  0  0  0            999 V2000
    5.4730    3.9861    0.0000 C   0  0  0  0  0  0  0  0  0  0  0  0
    6.1875    3.5736    0.0000 C   0  0  0  0  0  0  0  0  0  0  0  0
    6.9020    3.9861    0.0000 C   0  0  0  0  0  0  0  0  0  0  0  0
    6.9020    4.8111    0.0000 O   0  0  0  0  0  0  0  0  0  0  0  0
    7.6164    3.5736    0.0000 O   0  0  0  0  0  0  0  0  0  0  0  0
    8.3309    3.9861    0.0000 C   0  0  0  0  0  0  0  0  0  0  0  0
    9.0454    3.5736    0.0000 C   0  0  0  0  0  0  0  0  0  0  0  0
    9.7599    3.9861    0.0000 O   0  0  0  0  0  0  0  0  0  0  0  0
   10.4743    3.5736    0.0000 C   0  0  0  0  0  0  0  0  0  0  0  0
   10.4743    2.7486    0.0000 O   0  0  0  0  0  0  0  0  0  0  0  0
   11.1888    3.9861    0.0000 N   0  0  0  0  0  0  0  0  0  0  0  0
   11.9033    3.5736    0.0000 C   0  0  0  0  0  0  0  0  0  0  0  0
   12.6177    3.9861    0.0000 C   0  0  0  0  0  0  0  0  0  0  0  0
   13.3322    3.5736    0.0000 C   0  0  0  0  0  0  0  0  0  0  0  0
   14.0467    3.9861    0.0000 C   0  0  0  0  0  0  0  0  0  0  0  0
    5.4730    4.8111    0.0000 H   0  0  0  0  0  0  0  0  0  0  0  0
    4.7586    3.5736    0.0000 H   0  0  0  0  0  0  0  0  0  0  0  0
    6.1875    2.7486    0.0000 H   0  0  0  0  0  0  0  0  0  0  0  0
    8.7012    4.7233    0.0000 H   0  0  0  0  0  0  0  0  0  0  0  0
    7.9607    4.7233    0.0000 H   0  0  0  0  0  0  0  0  0  0  0  0
    8.6751    2.8363    0.0000 H   0  0  0  0  0  0  0  0  0  0  0  0
    9.4156    2.8363    0.0000 H   0  0  0  0  0  0  0  0  0  0  0  0
   11.1888    4.8111    0.0000 H   0  0  0  0  0  0  0  0  0  0  0  0
   11.5330    2.8363    0.0000 H   0  0  0  0  0  0  0  0  0  0  0  0
   12.2735    2.8363    0.0000 H   0  0  0  0  0  0  0  0  0  0  0  0
   12.9880    4.7233    0.0000 H   0  0  0  0  0  0  0  0  0  0  0  0
   12.2475    4.7233    0.0000 H   0  0  0  0  0  0  0  0  0  0  0  0
   12.9619    2.8363    0.0000 H   0  0  0  0  0  0  0  0  0  0  0  0
   13.7025    2.8363    0.0000 H   0  0  0  0  0  0  0  0  0  0  0  0
   14.4592    3.2716    0.0000 H   0  0  0  0  0  0  0  0  0  0  0  0
   14.7612    4.3986    0.0000 H   0  0  0  0  0  0  0  0  0  0  0  0
   13.6342    4.7005    0.0000 H   0  0  0  0  0  0  0  0  0  0  0  0
  1  2  2  0  0  0  0
  2  3  1  0  0  0  0
  3  4  2  0  0  0  0
  3  5  1  0  0  0  0
  5  6  1  0  0  0  0
  6  7  1  0  0  0  0
  7  8  1  0  0  0  0
  8  9  1  0  0  0  0
  9 10  2  0  0  0  0
  9 11  1  0  0  0  0
 11 12  1  0  0  0  0
 12 13  1  0  0  0  0
 13 14  1  0  0  0  0
 14 15  1  0  0  0  0
  1 16  1  0  0  0  0
  1 17  1  0  0  0  0
  2 18  1  0  0  0  0
  6 19  1  0  0  0  0
  6 20  1  0  0  0  0
  7 21  1  0  0  0  0
  7 22  1  0  0  0  0
 11 23  1  0  0  0  0
 12 24  1  0  0  0  0
 12 25  1  0  0  0  0
 13 26  1  0  0  0  0
 13 27  1  0  0  0  0
 14 28  1  0  0  0  0
 14 29  1  0  0  0  0
 15 30  1  0  0  0  0
 15 31  1  0  0  0  0
 15 32  1  0  0  0  0
M  END
> <id>
1391; 1390; 1389

> <casrn>
63225-53-6

> <smiles (First)>


> <Molecular weight>
215.24627685546872

> <name>
2-[(butylcarbamoyl)oxy]ethyl prop-2-enoate

> <Outcome>
1

> <Molecule (RDKit Mol) (InChI Code)>
InChI=1S/C10H17NO4/c1-3-5-6-11-10(13)15-8-7-14-9(12)4-2/h4H,2-3,5-8H2,1H3,(H,11,13)

> <reference>
ECHA

> <molecule_form>
A

$$$$

  Mrv1812 01171911372D          

 33 34  0  0  0  0            999 V2000
    1.4280    0.8255    0.0000 C   0  0  0  0  0  0  0  0  0  0  0  0
    1.4280    0.0005    0.0000 C   0  0  0  0  0  0  0  0  0  0  0  0
    0.7135   -0.4120    0.0000 S   0  0  0  0  0  0  0  0  0  0  0  0
   -0.0009    0.0005    0.0000 O   0  0  0  0  0  0  0  0  0  0  0  0
    0.7135   -1.2370    0.0000 C   0  0  0  0  0  0  0  0  0  0  0  0
    1.3810   -1.7219    0.0000 C   0  0  0  0  0  0  0  0  0  0  0  0
    2.1656   -1.4669    0.0000 C   0  0  0  0  0  0  0  0  0  0  0  0
    2.9502   -1.2120    0.0000 N   0  0  0  0  0  0  0  0  0  0  0  0
    1.1260   -2.5065    0.0000 N   0  0  0  0  0  0  0  0  0  0  0  0
    0.3010   -2.5065    0.0000 N   0  0  0  0  0  0  0  0  0  0  0  0
   -0.1839   -3.1739    0.0000 C   0  0  0  0  0  0  0  0  0  0  0  0
    0.1517   -3.9276    0.0000 C   0  0  0  0  0  0  0  0  0  0  0  0
    0.9722   -4.0138    0.0000 Cl  0  0  0  0  0  0  0  0  0  0  0  0
   -0.3332   -4.5951    0.0000 C   0  0  0  0  0  0  0  0  0  0  0  0
   -1.1537   -4.5088    0.0000 C   0  0  0  0  0  0  0  0  0  0  0  0
   -1.6387   -5.1763    0.0000 C   0  0  0  0  0  0  0  0  0  0  0  0
   -2.1236   -5.8437    0.0000 F   0  0  0  0  0  0  0  0  0  0  0  0
   -2.3061   -4.6913    0.0000 F   0  0  0  0  0  0  0  0  0  0  0  0
   -0.9712   -5.6612    0.0000 F   0  0  0  0  0  0  0  0  0  0  0  0
   -1.4893   -3.7551    0.0000 C   0  0  0  0  0  0  0  0  0  0  0  0
   -1.0044   -3.0877    0.0000 C   0  0  0  0  0  0  0  0  0  0  0  0
   -1.3399   -2.3340    0.0000 Cl  0  0  0  0  0  0  0  0  0  0  0  0
    0.0461   -1.7219    0.0000 C   0  0  0  0  0  0  0  0  0  0  0  0
   -0.7385   -1.4669    0.0000 N   0  0  0  0  0  0  0  0  0  0  0  0
    2.2530    0.8255    0.0000 H   0  0  0  0  0  0  0  0  0  0  0  0
    1.4280    1.6505    0.0000 H   0  0  0  0  0  0  0  0  0  0  0  0
    0.6030    0.8255    0.0000 H   0  0  0  0  0  0  0  0  0  0  0  0
    1.8814   -0.6887    0.0000 H   0  0  0  0  0  0  0  0  0  0  0  0
    2.2516   -0.0474    0.0000 H   0  0  0  0  0  0  0  0  0  0  0  0
    0.0023   -5.3487    0.0000 H   0  0  0  0  0  0  0  0  0  0  0  0
   -2.3098   -3.6689    0.0000 H   0  0  0  0  0  0  0  0  0  0  0  0
   -0.9100   -0.6600    0.0000 H   0  0  0  0  0  0  0  0  0  0  0  0
   -1.3516   -2.0190    0.0000 H   0  0  0  0  0  0  0  0  0  0  0  0
  1  2  1  0  0  0  0
  2  3  1  0  0  0  0
  3  4  2  0  0  0  0
  3  5  1  0  0  0  0
  5  6  4  0  0  0  0
  6  7  1  0  0  0  0
  7  8  3  0  0  0  0
  6  9  4  0  0  0  0
  9 10  4  0  0  0  0
 10 11  1  0  0  0  0
 11 12  4  0  0  0  0
 12 13  1  0  0  0  0
 12 14  4  0  0  0  0
 14 15  4  0  0  0  0
 15 16  1  0  0  0  0
 16 17  1  0  0  0  0
 16 18  1  0  0  0  0
 16 19  1  0  0  0  0
 15 20  4  0  0  0  0
 20 21  4  0  0  0  0
 11 21  4  0  0  0  0
 21 22  1  0  0  0  0
 10 23  4  0  0  0  0
  5 23  4  0  0  0  0
 23 24  1  0  0  0  0
  1 25  1  0  0  0  0
  1 26  1  0  0  0  0
  1 27  1  0  0  0  0
  2 28  1  0  0  0  0
  2 29  1  0  0  0  0
 14 30  1  0  0  0  0
 20 31  1  0  0  0  0
 24 32  1  0  0  0  0
 24 33  1  0  0  0  0
M  END
> <id>
4186

> <casrn>
181587-01-9

> <smiles (First)>


> <Molecular weight>
397.2029724121094

> <name>
unnamed [181587-01-9]

> <Outcome>
0

> <Molecule (RDKit Mol) (InChI Code)>
InChI=1S/C13H9Cl2F3N4OS/c1-2-24(23)11-9(5-19)21-22(12(11)20)10-7(14)3-6(4-8(10)15)13(16,17)18/h3-4H,2,20H2,1H3

> <reference>
ECHA

> <molecule_form>
A

$$$$

  Mrv1812 01171911372D          

 78 77  0  0  0  0            999 V2000
   -0.4841    4.7187    0.0000 C   0  0  0  0  0  0  0  0  0  0  0  0
    0.2304    4.3062    0.0000 C   0  0  0  0  0  0  0  0  0  0  0  0
    0.9448    4.7187    0.0000 C   0  0  0  0  0  0  0  0  0  0  0  0
    1.6593    4.3062    0.0000 C   0  0  0  0  0  0  0  0  0  0  0  0
    2.3738    4.7187    0.0000 C   0  0  0  0  0  0  0  0  0  0  0  0
    3.0882    4.3062    0.0000 C   0  0  0  0  0  0  0  0  0  0  0  0
    3.8027    4.7187    0.0000 C   0  0  0  0  0  0  0  0  0  0  0  0
    4.5172    4.3062    0.0000 C   0  0  0  0  0  0  0  0  0  0  0  0
    5.2317    4.7187    0.0000 C   0  0  0  0  0  0  0  0  0  0  0  0
    5.9461    4.3062    0.0000 C   0  0  0  0  0  0  0  0  0  0  0  0
    6.6606    4.7187    0.0000 C   0  0  0  0  0  0  0  0  0  0  0  0
    7.3751    4.3062    0.0000 C   0  0  0  0  0  0  0  0  0  0  0  0
    8.0895    4.7187    0.0000 C   0  0  0  0  0  0  0  0  0  0  0  0
    8.8040    4.3062    0.0000 C   0  0  0  0  0  0  0  0  0  0  0  0
    9.5185    4.7187    0.0000 C   0  0  0  0  0  0  0  0  0  0  0  0
   10.2329    4.3062    0.0000 C   0  0  0  0  0  0  0  0  0  0  0  0
   10.9474    4.7187    0.0000 C   0  0  0  0  0  0  0  0  0  0  0  0
   11.6619    4.3062    0.0000 C   0  0  0  0  0  0  0  0  0  0  0  0
   11.6619    3.4812    0.0000 O   0  0  0  0  0  0  0  0  0  0  0  0
   12.3764    4.7187    0.0000 O   0  0  0  0  0  0  0  0  0  0  0  0
   13.0908    4.3062    0.0000 C   0  0  0  0  0  0  0  0  0  0  0  0
   13.8053    4.7187    0.0000 C   0  0  0  0  0  0  0  0  0  0  0  0
   13.8053    5.5437    0.0000 C   0  0  0  0  0  0  0  0  0  0  0  0
   14.5198    5.9562    0.0000 C   0  0  0  0  0  0  0  0  0  0  0  0
   14.5198    4.3062    0.0000 C   0  0  0  0  0  0  0  0  0  0  0  0
   15.2342    4.7187    0.0000 C   0  0  0  0  0  0  0  0  0  0  0  0
   15.9487    4.3062    0.0000 C   0  0  0  0  0  0  0  0  0  0  0  0
   16.6632    4.7187    0.0000 C   0  0  0  0  0  0  0  0  0  0  0  0
   -0.0716    5.4331    0.0000 H   0  0  0  0  0  0  0  0  0  0  0  0
   -1.1986    5.1312    0.0000 H   0  0  0  0  0  0  0  0  0  0  0  0
   -0.8966    4.0042    0.0000 H   0  0  0  0  0  0  0  0  0  0  0  0
   -0.1399    3.5689    0.0000 H   0  0  0  0  0  0  0  0  0  0  0  0
    0.6006    3.5689    0.0000 H   0  0  0  0  0  0  0  0  0  0  0  0
    1.3151    5.4559    0.0000 H   0  0  0  0  0  0  0  0  0  0  0  0
    0.5746    5.4559    0.0000 H   0  0  0  0  0  0  0  0  0  0  0  0
    1.2890    3.5689    0.0000 H   0  0  0  0  0  0  0  0  0  0  0  0
    2.0296    3.5689    0.0000 H   0  0  0  0  0  0  0  0  0  0  0  0
    2.7440    5.4559    0.0000 H   0  0  0  0  0  0  0  0  0  0  0  0
    2.0035    5.4559    0.0000 H   0  0  0  0  0  0  0  0  0  0  0  0
    2.7180    3.5689    0.0000 H   0  0  0  0  0  0  0  0  0  0  0  0
    3.4585    3.5689    0.0000 H   0  0  0  0  0  0  0  0  0  0  0  0
    4.1730    5.4559    0.0000 H   0  0  0  0  0  0  0  0  0  0  0  0
    3.4325    5.4559    0.0000 H   0  0  0  0  0  0  0  0  0  0  0  0
    4.1469    3.5689    0.0000 H   0  0  0  0  0  0  0  0  0  0  0  0
    4.8874    3.5689    0.0000 H   0  0  0  0  0  0  0  0  0  0  0  0
    5.2317    5.5437    0.0000 H   0  0  0  0  0  0  0  0  0  0  0  0
    5.9461    3.4812    0.0000 H   0  0  0  0  0  0  0  0  0  0  0  0
    7.0309    5.4559    0.0000 H   0  0  0  0  0  0  0  0  0  0  0  0
    6.2903    5.4559    0.0000 H   0  0  0  0  0  0  0  0  0  0  0  0
    7.0048    3.5689    0.0000 H   0  0  0  0  0  0  0  0  0  0  0  0
    7.7453    3.5689    0.0000 H   0  0  0  0  0  0  0  0  0  0  0  0
    8.4598    5.4559    0.0000 H   0  0  0  0  0  0  0  0  0  0  0  0
    7.7193    5.4559    0.0000 H   0  0  0  0  0  0  0  0  0  0  0  0
    8.4337    3.5689    0.0000 H   0  0  0  0  0  0  0  0  0  0  0  0
    9.1743    3.5689    0.0000 H   0  0  0  0  0  0  0  0  0  0  0  0
    9.8887    5.4559    0.0000 H   0  0  0  0  0  0  0  0  0  0  0  0
    9.1482    5.4559    0.0000 H   0  0  0  0  0  0  0  0  0  0  0  0
    9.8627    3.5689    0.0000 H   0  0  0  0  0  0  0  0  0  0  0  0
   10.6032    3.5689    0.0000 H   0  0  0  0  0  0  0  0  0  0  0  0
   11.3177    5.4559    0.0000 H   0  0  0  0  0  0  0  0  0  0  0  0
   10.5772    5.4559    0.0000 H   0  0  0  0  0  0  0  0  0  0  0  0
   12.7206    3.5689    0.0000 H   0  0  0  0  0  0  0  0  0  0  0  0
   13.4611    3.5689    0.0000 H   0  0  0  0  0  0  0  0  0  0  0  0
   13.0908    5.1312    0.0000 H   0  0  0  0  0  0  0  0  0  0  0  0
   13.6620    6.3561    0.0000 H   0  0  0  0  0  0  0  0  0  0  0  0
   13.1733    6.0740    0.0000 H   0  0  0  0  0  0  0  0  0  0  0  0
   14.7506    5.1641    0.0000 H   0  0  0  0  0  0  0  0  0  0  0  0
   15.3440    5.9921    0.0000 H   0  0  0  0  0  0  0  0  0  0  0  0
   14.6807    6.7653    0.0000 H   0  0  0  0  0  0  0  0  0  0  0  0
   14.1495    3.5689    0.0000 H   0  0  0  0  0  0  0  0  0  0  0  0
   14.8900    3.5689    0.0000 H   0  0  0  0  0  0  0  0  0  0  0  0
   15.7229    5.3833    0.0000 H   0  0  0  0  0  0  0  0  0  0  0  0
   15.2342    3.8937    0.0000 H   0  0  0  0  0  0  0  0  0  0  0  0
   16.0920    3.4937    0.0000 H   0  0  0  0  0  0  0  0  0  0  0  0
   16.5807    3.7759    0.0000 H   0  0  0  0  0  0  0  0  0  0  0  0
   17.4444    4.4535    0.0000 H   0  0  0  0  0  0  0  0  0  0  0  0
   17.1065    5.4145    0.0000 H   0  0  0  0  0  0  0  0  0  0  0  0
   16.0927    5.3146    0.0000 H   0  0  0  0  0  0  0  0  0  0  0  0
  1  2  1  0  0  0  0
  2  3  1  0  0  0  0
  3  4  1  0  0  0  0
  4  5  1  0  0  0  0
  5  6  1  0  0  0  0
  6  7  1  0  0  0  0
  7  8  1  0  0  0  0
  9  8  1  4  0  0  0
  9 10  2  0  0  0  0
 10 11  1  0  0  0  0
 11 12  1  0  0  0  0
 12 13  1  0  0  0  0
 13 14  1  0  0  0  0
 14 15  1  0  0  0  0
 15 16  1  0  0  0  0
 16 17  1  0  0  0  0
 17 18  1  0  0  0  0
 18 19  2  0  0  0  0
 18 20  1  0  0  0  0
 20 21  1  0  0  0  0
 21 22  1  0  0  0  0
 22 23  1  0  0  0  0
 23 24  1  0  0  0  0
 22 25  1  0  0  0  0
 25 26  1  0  0  0  0
 26 27  1  0  0  0  0
 27 28  1  0  0  0  0
  1 29  1  0  0  0  0
  1 30  1  0  0  0  0
  1 31  1  0  0  0  0
  2 32  1  0  0  0  0
  2 33  1  0  0  0  0
  3 34  1  0  0  0  0
  3 35  1  0  0  0  0
  4 36  1  0  0  0  0
  4 37  1  0  0  0  0
  5 38  1  0  0  0  0
  5 39  1  0  0  0  0
  6 40  1  0  0  0  0
  6 41  1  0  0  0  0
  7 42  1  0  0  0  0
  7 43  1  0  0  0  0
  8 44  1  0  0  0  0
  8 45  1  0  0  0  0
  9 46  1  0  0  0  0
 10 47  1  0  0  0  0
 11 48  1  0  0  0  0
 11 49  1  0  0  0  0
 12 50  1  0  0  0  0
 12 51  1  0  0  0  0
 13 52  1  0  0  0  0
 13 53  1  0  0  0  0
 14 54  1  0  0  0  0
 14 55  1  0  0  0  0
 15 56  1  0  0  0  0
 15 57  1  0  0  0  0
 16 58  1  0  0  0  0
 16 59  1  0  0  0  0
 17 60  1  0  0  0  0
 17 61  1  0  0  0  0
 21 62  1  0  0  0  0
 21 63  1  0  0  0  0
 22 64  1  0  0  0  0
 23 65  1  0  0  0  0
 23 66  1  0  0  0  0
 24 67  1  0  0  0  0
 24 68  1  0  0  0  0
 24 69  1  0  0  0  0
 25 70  1  0  0  0  0
 25 71  1  0  0  0  0
 26 72  1  0  0  0  0
 26 73  1  0  0  0  0
 27 74  1  0  0  0  0
 27 75  1  0  0  0  0
 28 76  1  0  0  0  0
 28 77  1  0  0  0  0
 28 78  1  0  0  0  0
M  END
> <id>
1468

> <casrn>
26399-02-0

> <smiles (First)>


> <Molecular weight>
394.67401123046875

> <name>
2-ethylhexyl (9Z)-octadec-9-enoate

> <Outcome>
0

> <Molecule (RDKit Mol) (InChI Code)>
InChI=1S/C26H50O2/c1-4-7-9-10-11-12-13-14-15-16-17-18-19-20-21-23-26(27)28-24-25(6-3)22-8-5-2/h14-15,25H,4-13,16-24H2,1-3H3

> <reference>
ECHA

> <molecule_form>
A

$$$$

  Mrv1812 01171911372D          

 21 22  0  0  0  0            999 V2000
   -0.5821    7.9957    0.0000 C   0  0  0  0  0  0  0  0  0  0  0  0
    0.1324    7.5832    0.0000 C   0  0  0  0  0  0  0  0  0  0  0  0
    0.1324    6.7582    0.0000 C   0  0  0  0  0  0  0  0  0  0  0  0
   -0.5821    6.3457    0.0000 C   0  0  0  0  0  0  0  0  0  0  0  0
   -0.5821    5.5207    0.0000 O   0  0  0  0  0  0  0  0  0  0  0  0
    0.1324    5.1082    0.0000 C   0  0  0  0  0  0  0  0  0  0  0  0
    0.1324    4.2832    0.0000 C   0  0  0  0  0  0  0  0  0  0  0  0
    0.5449    3.5688    0.0000 C   0  0  0  0  0  0  0  0  0  0  0  0
   -0.2801    3.5688    0.0000 O   0  0  0  0  0  0  0  0  0  0  0  0
   -1.2965    6.7582    0.0000 C   0  0  0  0  0  0  0  0  0  0  0  0
   -1.2965    7.5832    0.0000 C   0  0  0  0  0  0  0  0  0  0  0  0
   -0.5821    8.8207    0.0000 H   0  0  0  0  0  0  0  0  0  0  0  0
    0.8469    7.9957    0.0000 H   0  0  0  0  0  0  0  0  0  0  0  0
    0.8469    6.3457    0.0000 H   0  0  0  0  0  0  0  0  0  0  0  0
    0.9560    5.1562    0.0000 H   0  0  0  0  0  0  0  0  0  0  0  0
    0.5857    5.7975    0.0000 H   0  0  0  0  0  0  0  0  0  0  0  0
   -0.6645    4.4967    0.0000 H   0  0  0  0  0  0  0  0  0  0  0  0
    0.9152    2.8315    0.0000 H   0  0  0  0  0  0  0  0  0  0  0  0
    1.3685    3.6167    0.0000 H   0  0  0  0  0  0  0  0  0  0  0  0
   -2.0110    6.3457    0.0000 H   0  0  0  0  0  0  0  0  0  0  0  0
   -2.0110    7.9957    0.0000 H   0  0  0  0  0  0  0  0  0  0  0  0
  1  2  4  0  0  0  0
  2  3  4  0  0  0  0
  3  4  4  0  0  0  0
  4  5  1  0  0  0  0
  5  6  1  0  0  0  0
  6  7  1  0  0  0  0
  7  8  1  0  0  0  0
  8  9  1  0  0  0  0
  7  9  1  0  0  0  0
  4 10  4  0  0  0  0
 10 11  4  0  0  0  0
  1 11  4  0  0  0  0
  1 12  1  0  0  0  0
  2 13  1  0  0  0  0
  3 14  1  0  0  0  0
  6 15  1  0  0  0  0
  6 16  1  0  0  0  0
  7 17  1  0  0  0  0
  8 18  1  0  0  0  0
  8 19  1  0  0  0  0
 10 20  1  0  0  0  0
 11 21  1  0  0  0  0
M  END
> <id>
1354

> <casrn>
122-60-1

> <smiles (First)>


> <Molecular weight>
150.17449951171875

> <name>
2-(phenoxymethyl)oxirane

> <Outcome>
1

> <Molecule (RDKit Mol) (InChI Code)>
InChI=1S/C9H10O2/c1-2-4-8(5-3-1)10-6-9-7-11-9/h1-5,9H,6-7H2

> <reference>
ECHA

> <molecule_form>
V

$$$$

  Mrv1812 01171911372D          

 17 16  0  0  0  0            999 V2000
    2.6186   -1.5166    0.0000 C   0  0  0  0  0  0  0  0  0  0  0  0
    2.2061   -0.8021    0.0000 C   0  0  0  0  0  0  0  0  0  0  0  0
    1.3811   -0.8021    0.0000 N   0  0  0  0  0  0  0  0  0  0  0  0
    0.9686   -1.5166    0.0000 O   0  0  0  0  0  0  0  0  0  0  0  0
    0.9686   -0.0877    0.0000 C   0  0  0  0  0  0  0  0  0  0  0  0
    0.1436   -0.0877    0.0000 C   0  0  0  0  0  0  0  0  0  0  0  0
    1.9041   -1.9291    0.0000 H   0  0  0  0  0  0  0  0  0  0  0  0
    3.0311   -2.2311    0.0000 H   0  0  0  0  0  0  0  0  0  0  0  0
    3.3330   -1.1041    0.0000 H   0  0  0  0  0  0  0  0  0  0  0  0
    2.8953   -0.3488    0.0000 H   0  0  0  0  0  0  0  0  0  0  0  0
    2.2540    0.0215    0.0000 H   0  0  0  0  0  0  0  0  0  0  0  0
    0.1436   -1.5166    0.0000 H   0  0  0  0  0  0  0  0  0  0  0  0
    1.6578    0.3657    0.0000 H   0  0  0  0  0  0  0  0  0  0  0  0
    1.0165    0.7360    0.0000 H   0  0  0  0  0  0  0  0  0  0  0  0
    0.1436    0.7373    0.0000 H   0  0  0  0  0  0  0  0  0  0  0  0
   -0.6814   -0.0877    0.0000 H   0  0  0  0  0  0  0  0  0  0  0  0
    0.1436   -0.9127    0.0000 H   0  0  0  0  0  0  0  0  0  0  0  0
  1  2  1  0  0  0  0
  2  3  1  0  0  0  0
  3  4  1  0  0  0  0
  3  5  1  0  0  0  0
  5  6  1  0  0  0  0
  1  7  1  0  0  0  0
  1  8  1  0  0  0  0
  1  9  1  0  0  0  0
  2 10  1  0  0  0  0
  2 11  1  0  0  0  0
  4 12  1  0  0  0  0
  5 13  1  0  0  0  0
  5 14  1  0  0  0  0
  6 15  1  0  0  0  0
  6 16  1  0  0  0  0
  6 17  1  0  0  0  0
M  END
> <id>
2374

> <casrn>
3710-84-7

> <smiles (First)>


> <Molecular weight>
89.13623809814453

> <name>
N,N-diethylhydroxylamine

> <Outcome>
1

> <Molecule (RDKit Mol) (InChI Code)>
InChI=1S/C4H11NO/c1-3-5(6)4-2/h6H,3-4H2,1-2H3

> <reference>
ECHA

> <molecule_form>
V

$$$$

  Mrv1812 01171911372D          

 39 38  0  0  0  0            999 V2000
    4.7586    3.5734    0.0000 C   0  0  0  0  0  0  0  0  0  0  0  0
    5.4730    3.9859    0.0000 C   0  0  0  0  0  0  0  0  0  0  0  0
    6.1875    3.5734    0.0000 C   0  0  0  0  0  0  0  0  0  0  0  0
    6.9020    3.9859    0.0000 C   0  0  0  0  0  0  0  0  0  0  0  0
    7.6164    3.5734    0.0000 C   0  0  0  0  0  0  0  0  0  0  0  0
    8.3309    3.9859    0.0000 C   0  0  0  0  0  0  0  0  0  0  0  0
    9.0454    3.5734    0.0000 C   0  0  0  0  0  0  0  0  0  0  0  0
    9.7599    3.9859    0.0000 C   0  0  0  0  0  0  0  0  0  0  0  0
   10.4743    3.5734    0.0000 C   0  0  0  0  0  0  0  0  0  0  0  0
   11.1888    3.9859    0.0000 C   0  0  0  0  0  0  0  0  0  0  0  0
   11.9033    3.5734    0.0000 C   0  0  0  0  0  0  0  0  0  0  0  0
   11.9033    2.7484    0.0000 O   0  0  0  0  0  0  0  0  0  0  0  0
   12.6177    3.9859    0.0000 O   0  0  0  0  0  0  0  0  0  0  0  0
   13.3322    3.5734    0.0000 C   0  0  0  0  0  0  0  0  0  0  0  0
   14.0467    3.9859    0.0000 C   0  0  0  0  0  0  0  0  0  0  0  0
    4.0441    3.9859    0.0000 H   0  0  0  0  0  0  0  0  0  0  0  0
    4.7586    2.7484    0.0000 H   0  0  0  0  0  0  0  0  0  0  0  0
    5.4730    4.8109    0.0000 H   0  0  0  0  0  0  0  0  0  0  0  0
    5.8172    2.8361    0.0000 H   0  0  0  0  0  0  0  0  0  0  0  0
    6.5578    2.8361    0.0000 H   0  0  0  0  0  0  0  0  0  0  0  0
    7.2722    4.7231    0.0000 H   0  0  0  0  0  0  0  0  0  0  0  0
    6.5317    4.7231    0.0000 H   0  0  0  0  0  0  0  0  0  0  0  0
    7.2462    2.8361    0.0000 H   0  0  0  0  0  0  0  0  0  0  0  0
    7.9867    2.8361    0.0000 H   0  0  0  0  0  0  0  0  0  0  0  0
    8.7012    4.7231    0.0000 H   0  0  0  0  0  0  0  0  0  0  0  0
    7.9607    4.7231    0.0000 H   0  0  0  0  0  0  0  0  0  0  0  0
    8.6751    2.8361    0.0000 H   0  0  0  0  0  0  0  0  0  0  0  0
    9.4156    2.8361    0.0000 H   0  0  0  0  0  0  0  0  0  0  0  0
   10.1301    4.7231    0.0000 H   0  0  0  0  0  0  0  0  0  0  0  0
    9.3896    4.7231    0.0000 H   0  0  0  0  0  0  0  0  0  0  0  0
   10.1041    2.8361    0.0000 H   0  0  0  0  0  0  0  0  0  0  0  0
   10.8446    2.8361    0.0000 H   0  0  0  0  0  0  0  0  0  0  0  0
   11.5591    4.7231    0.0000 H   0  0  0  0  0  0  0  0  0  0  0  0
   10.8185    4.7231    0.0000 H   0  0  0  0  0  0  0  0  0  0  0  0
   12.9620    2.8361    0.0000 H   0  0  0  0  0  0  0  0  0  0  0  0
   13.7025    2.8361    0.0000 H   0  0  0  0  0  0  0  0  0  0  0  0
   14.4592    3.2714    0.0000 H   0  0  0  0  0  0  0  0  0  0  0  0
   14.7612    4.3984    0.0000 H   0  0  0  0  0  0  0  0  0  0  0  0
   13.6342    4.7003    0.0000 H   0  0  0  0  0  0  0  0  0  0  0  0
  1  2  2  0  0  0  0
  2  3  1  0  0  0  0
  3  4  1  0  0  0  0
  4  5  1  0  0  0  0
  5  6  1  0  0  0  0
  6  7  1  0  0  0  0
  7  8  1  0  0  0  0
  8  9  1  0  0  0  0
  9 10  1  0  0  0  0
 10 11  1  0  0  0  0
 11 12  2  0  0  0  0
 11 13  1  0  0  0  0
 13 14  1  0  0  0  0
 14 15  1  0  0  0  0
  1 16  1  0  0  0  0
  1 17  1  0  0  0  0
  2 18  1  0  0  0  0
  3 19  1  0  0  0  0
  3 20  1  0  0  0  0
  4 21  1  0  0  0  0
  4 22  1  0  0  0  0
  5 23  1  0  0  0  0
  5 24  1  0  0  0  0
  6 25  1  0  0  0  0
  6 26  1  0  0  0  0
  7 27  1  0  0  0  0
  7 28  1  0  0  0  0
  8 29  1  0  0  0  0
  8 30  1  0  0  0  0
  9 31  1  0  0  0  0
  9 32  1  0  0  0  0
 10 33  1  0  0  0  0
 10 34  1  0  0  0  0
 14 35  1  0  0  0  0
 14 36  1  0  0  0  0
 15 37  1  0  0  0  0
 15 38  1  0  0  0  0
 15 39  1  0  0  0  0
M  END
> <id>
3167

> <casrn>
692-86-4

> <smiles (First)>


> <Molecular weight>
212.32846069335938

> <name>
ethyl undec-10-enoate

> <Outcome>
0

> <Molecule (RDKit Mol) (InChI Code)>
InChI=1S/C13H24O2/c1-3-5-6-7-8-9-10-11-12-13(14)15-4-2/h3H,1,4-12H2,2H3

> <reference>
ECHA

> <molecule_form>
A

$$$$

  Mrv1812 01171911372D          

  9  8  0  0  0  0            999 V2000
    0.1105   -1.2375    0.0000 C   0  0  0  0  0  0  0  0  0  0  0  0
    0.8250   -0.8250    0.0000 C   0  0  0  0  0  0  0  0  0  0  0  0
    1.5395   -1.2375    0.0000 F   0  0  0  0  0  0  0  0  0  0  0  0
    0.8250    0.0000    0.0000 C   0  0  0  0  0  0  0  0  0  0  0  0
    0.8250    0.8250    0.0000 F   0  0  0  0  0  0  0  0  0  0  0  0
    1.6500    0.0000    0.0000 F   0  0  0  0  0  0  0  0  0  0  0  0
   -0.0000    0.0000    0.0000 F   0  0  0  0  0  0  0  0  0  0  0  0
   -0.6039   -0.8250    0.0000 H   0  0  0  0  0  0  0  0  0  0  0  0
    0.1105   -2.0625    0.0000 H   0  0  0  0  0  0  0  0  0  0  0  0
  1  2  2  0  0  0  0
  2  3  1  0  0  0  0
  2  4  1  0  0  0  0
  4  5  1  0  0  0  0
  4  6  1  0  0  0  0
  4  7  1  0  0  0  0
  1  8  1  0  0  0  0
  1  9  1  0  0  0  0
M  END
> <id>
1277

> <casrn>
754-12-1

> <smiles (First)>


> <Molecular weight>
114.04159545898438

> <name>
2,3,3,3-tetrafluoroprop-1-ene

> <Outcome>
0

> <Molecule (RDKit Mol) (InChI Code)>
InChI=1S/C3H2F4/c1-2(4)3(5,6)7/h1H2

> <reference>
ECHA

> <molecule_form>
G

$$$$

  Mrv1812 01171911372D          

 59 63  0  0  0  0            999 V2000
    3.6448   -2.9141    0.0000 C   0  0  0  0  0  0  0  0  0  0  0  0
    4.3593   -2.5016    0.0000 C   0  0  0  0  0  0  0  0  0  0  0  0
    4.3593   -1.6766    0.0000 C   0  0  0  0  0  0  0  0  0  0  0  0
    3.6448   -1.2641    0.0000 N   0  0  0  0  0  0  0  0  0  0  0  0
    3.6448   -0.4391    0.0000 C   0  0  0  0  0  0  0  0  0  0  0  0
    4.3593   -0.0266    0.0000 C   0  0  0  0  0  0  0  0  0  0  0  0
    4.3593    0.7984    0.0000 C   0  0  0  0  0  0  0  0  0  0  0  0
    5.0738    1.2109    0.0000 S   0  0  0  0  0  0  0  0  0  0  0  0
    5.7882    1.6234    0.0000 O   0  0  0  0  0  0  0  0  0  0  0  0
    4.6613    1.9254    0.0000 O   0  0  0  0  0  0  0  0  0  0  0  0
    5.4863    0.4964    0.0000 O   0  0  0  0  0  0  0  0  0  0  0  0
    3.6448    1.2109    0.0000 C   0  0  0  0  0  0  0  0  0  0  0  0
    3.6448    2.0359    0.0000 N   0  0  0  0  0  0  0  0  0  0  0  0
    2.9304    0.7984    0.0000 C   0  0  0  0  0  0  0  0  0  0  0  0
    2.9304   -0.0266    0.0000 C   0  0  0  0  0  0  0  0  0  0  0  0
    2.2159   -0.4391    0.0000 C   0  0  0  0  0  0  0  0  0  0  0  0
    2.2159   -1.2641    0.0000 O   0  0  0  0  0  0  0  0  0  0  0  0
    1.5014   -0.0266    0.0000 C   0  0  0  0  0  0  0  0  0  0  0  0
    0.7869   -0.4391    0.0000 C   0  0  0  0  0  0  0  0  0  0  0  0
    0.0725   -0.0266    0.0000 C   0  0  0  0  0  0  0  0  0  0  0  0
    0.0725    0.7984    0.0000 C   0  0  0  0  0  0  0  0  0  0  0  0
    0.7869    1.2109    0.0000 C   0  0  0  0  0  0  0  0  0  0  0  0
    1.5014    0.7984    0.0000 C   0  0  0  0  0  0  0  0  0  0  0  0
    2.2159    1.2109    0.0000 C   0  0  0  0  0  0  0  0  0  0  0  0
    2.2159    2.0359    0.0000 O   0  0  0  0  0  0  0  0  0  0  0  0
    5.0738   -1.2641    0.0000 C   0  0  0  0  0  0  0  0  0  0  0  0
    5.7882   -1.6766    0.0000 C   0  0  0  0  0  0  0  0  0  0  0  0
    6.5027   -1.2641    0.0000 S   0  0  0  0  0  0  0  0  0  0  0  0
    7.2172   -0.8516    0.0000 O   0  0  0  0  0  0  0  0  0  0  0  0
    6.9152   -1.9786    0.0000 O   0  0  0  0  0  0  0  0  0  0  0  0
    6.0902   -0.5496    0.0000 O   0  0  0  0  0  0  0  0  0  0  0  0
    5.7882   -2.5016    0.0000 C   0  0  0  0  0  0  0  0  0  0  0  0
    5.0738   -2.9141    0.0000 C   0  0  0  0  0  0  0  0  0  0  0  0
    5.0738   -3.7391    0.0000 N   0  0  0  0  0  0  0  0  0  0  0  0
    4.3593   -4.1516    0.0000 C   0  0  0  0  0  0  0  0  0  0  0  0
    3.6448   -3.7391    0.0000 N   0  0  0  0  0  0  0  0  0  0  0  0
    2.9304   -4.1516    0.0000 C   0  0  0  0  0  0  0  0  0  0  0  0
    2.2159   -3.7391    0.0000 F   0  0  0  0  0  0  0  0  0  0  0  0
    2.9304   -4.9766    0.0000 N   0  0  0  0  0  0  0  0  0  0  0  0
    3.6448   -5.3891    0.0000 C   0  0  0  0  0  0  0  0  0  0  0  0
    3.6448   -6.2141    0.0000 F   0  0  0  0  0  0  0  0  0  0  0  0
    4.3593   -4.9766    0.0000 C   0  0  0  0  0  0  0  0  0  0  0  0
    5.0738   -5.3891    0.0000 Cl  0  0  0  0  0  0  0  0  0  0  0  0
    3.6448   -2.0891    0.0000 H   0  0  0  0  0  0  0  0  0  0  0  0
    2.9304   -2.5016    0.0000 H   0  0  0  0  0  0  0  0  0  0  0  0
    2.9304   -3.3266    0.0000 H   0  0  0  0  0  0  0  0  0  0  0  0
    2.8198   -1.2641    0.0000 H   0  0  0  0  0  0  0  0  0  0  0  0
    5.0738   -0.4391    0.0000 H   0  0  0  0  0  0  0  0  0  0  0  0
    5.0738   -0.2180    0.0000 H   0  0  0  0  0  0  0  0  0  0  0  0
    4.3593    2.4484    0.0000 H   0  0  0  0  0  0  0  0  0  0  0  0
    2.9304    2.4484    0.0000 H   0  0  0  0  0  0  0  0  0  0  0  0
    0.7869   -1.2641    0.0000 H   0  0  0  0  0  0  0  0  0  0  0  0
   -0.6420   -0.4391    0.0000 H   0  0  0  0  0  0  0  0  0  0  0  0
   -0.6420    1.2109    0.0000 H   0  0  0  0  0  0  0  0  0  0  0  0
    0.7869    2.0359    0.0000 H   0  0  0  0  0  0  0  0  0  0  0  0
    5.7882   -0.8516    0.0000 H   0  0  0  0  0  0  0  0  0  0  0  0
    6.1979    0.2683    0.0000 H   0  0  0  0  0  0  0  0  0  0  0  0
    6.5027   -2.9141    0.0000 H   0  0  0  0  0  0  0  0  0  0  0  0
    5.7882   -4.1516    0.0000 H   0  0  0  0  0  0  0  0  0  0  0  0
  1  2  1  0  0  0  0
  2  3  4  0  0  0  0
  3  4  1  0  0  0  0
  4  5  1  0  0  0  0
  5  6  4  0  0  0  0
  6  7  4  0  0  0  0
  7  8  1  0  0  0  0
  8  9  2  0  0  0  0
  8 10  2  0  0  0  0
  8 11  1  0  0  0  0
  7 12  4  0  0  0  0
 12 13  1  0  0  0  0
 12 14  4  0  0  0  0
 14 15  4  0  0  0  0
  5 15  4  0  0  0  0
 15 16  1  0  0  0  0
 16 17  2  0  0  0  0
 16 18  1  0  0  0  0
 18 19  4  0  0  0  0
 19 20  4  0  0  0  0
 20 21  4  0  0  0  0
 21 22  4  0  0  0  0
 22 23  4  0  0  0  0
 18 23  4  0  0  0  0
 23 24  1  0  0  0  0
 14 24  1  0  0  0  0
 24 25  2  0  0  0  0
  3 26  4  0  0  0  0
 26 27  4  0  0  0  0
 27 28  1  0  0  0  0
 28 29  2  0  0  0  0
 28 30  2  0  0  0  0
 28 31  1  0  0  0  0
 27 32  4  0  0  0  0
 32 33  4  0  0  0  0
  2 33  4  0  0  0  0
 33 34  1  0  0  0  0
 34 35  1  0  0  0  0
 35 36  4  0  0  0  0
 36 37  4  0  0  0  0
 37 38  1  0  0  0  0
 37 39  4  0  0  0  0
 39 40  4  0  0  0  0
 40 41  1  0  0  0  0
 40 42  4  0  0  0  0
 35 42  4  0  0  0  0
 42 43  1  0  0  0  0
  1 44  1  0  0  0  0
  1 45  1  0  0  0  0
  1 46  1  0  0  0  0
  4 47  1  0  0  0  0
  6 48  1  0  0  0  0
 11 49  1  0  0  0  0
 13 50  1  0  0  0  0
 13 51  1  0  0  0  0
 19 52  1  0  0  0  0
 20 53  1  0  0  0  0
 21 54  1  0  0  0  0
 22 55  1  0  0  0  0
 26 56  1  0  0  0  0
 31 57  1  0  0  0  0
 32 58  1  0  0  0  0
 34 59  1  0  0  0  0
M  END
> <id>
3032

> <casrn>
72139-17-4

> <smiles (First)>


> <Molecular weight>
649.9871826171875

> <name>
disodium 1-amino-4-({3-[(5-chloro-2,6-difluoropyrimidin-4-yl)amino]-2-methyl-5-sulfonatophenyl}amino)-9,10-dioxo-9,10-dihydroanthracene-2-sulfonate

> <Outcome>
0

> <Molecule (RDKit Mol) (InChI Code)>
InChI=1S/C25H16ClF2N5O8S2/c1-9-13(6-10(42(36,37)38)7-14(9)31-24-19(26)23(27)32-25(28)33-24)30-15-8-16(43(39,40)41)20(29)18-17(15)21(34)11-4-2-3-5-12(11)22(18)35/h2-8,30H,29H2,1H3,(H,31,32,33)(H,36,37,38)(H,39,40,41)

> <reference>
ECHA

> <molecule_form>
A

$$$$

  Mrv1812 01171911372D          

 19 19  0  0  0  0            999 V2000
    0.1488   -0.3770    0.0000 C   0  0  0  0  0  0  0  0  0  0  0  0
    0.1488    0.4480    0.0000 N   0  0  0  0  0  0  0  0  0  0  0  0
   -0.5657    0.8605    0.0000 C   0  0  0  0  0  0  0  0  0  0  0  0
   -0.5657    1.6855    0.0000 O   0  0  0  0  0  0  0  0  0  0  0  0
    0.1488    2.0980    0.0000 C   0  0  0  0  0  0  0  0  0  0  0  0
    0.8633    1.6855    0.0000 N   0  0  0  0  0  0  0  0  0  0  0  0
    0.8633    0.8605    0.0000 C   0  0  0  0  0  0  0  0  0  0  0  0
    1.5778    0.4480    0.0000 N   0  0  0  0  0  0  0  0  0  0  0  0
    1.5778   -0.3770    0.0000 N   0  0  0  0  0  0  0  0  0  0  0  0
    2.2922   -0.7895    0.0000 O   0  0  0  0  0  0  0  0  0  0  0  0
    0.8633   -0.7895    0.0000 O   0  0  0  0  0  0  0  0  0  0  0  0
   -0.5657    0.0355    0.0000 H   0  0  0  0  0  0  0  0  0  0  0  0
   -0.5657   -0.7895    0.0000 H   0  0  0  0  0  0  0  0  0  0  0  0
    0.1488   -1.2020    0.0000 H   0  0  0  0  0  0  0  0  0  0  0  0
   -1.3409    1.1427    0.0000 H   0  0  0  0  0  0  0  0  0  0  0  0
   -1.3409    0.5784    0.0000 H   0  0  0  0  0  0  0  0  0  0  0  0
    0.5191    2.8353    0.0000 H   0  0  0  0  0  0  0  0  0  0  0  0
   -0.2214    2.8353    0.0000 H   0  0  0  0  0  0  0  0  0  0  0  0
    2.2922    0.8605    0.0000 H   0  0  0  0  0  0  0  0  0  0  0  0
  1  2  1  0  0  0  0
  2  3  1  0  0  0  0
  3  4  1  0  0  0  0
  4  5  1  0  0  0  0
  5  6  1  0  0  0  0
  6  7  2  0  0  0  0
  2  7  1  0  0  0  0
  7  8  1  0  0  0  0
  8  9  1  0  0  0  0
  9 10  2  0  0  0  0
  9 11  2  0  0  0  0
  1 12  1  0  0  0  0
  1 13  1  0  0  0  0
  1 14  1  0  0  0  0
  3 15  1  0  0  0  0
  3 16  1  0  0  0  0
  5 17  1  0  0  0  0
  5 18  1  0  0  0  0
  8 19  1  0  0  0  0
M  END
> <id>
1784

> <casrn>
153719-38-1

> <smiles (First)>


> <Molecular weight>
160.13131713867188

> <name>
3-methyl-N-nitro-3,6-dihydro-2H-1,3,5-oxadiazin-4-amine

> <Outcome>
0

> <Molecule (RDKit Mol) (InChI Code)>
InChI=1S/C4H8N4O3/c1-7-3-11-2-5-4(7)6-8(9)10/h2-3H2,1H3,(H,5,6)

> <reference>
ECHA

> <molecule_form>
A

$$$$

  Mrv1812 01171911372D          

 40 41  0  0  0  0            999 V2000
    0.0714    0.0000    0.0000 C   0  0  0  0  0  0  0  0  0  0  0  0
   -0.6430   -0.4125    0.0000 O   0  0  0  0  0  0  0  0  0  0  0  0
   -0.6430   -1.2375    0.0000 C   0  0  0  0  0  0  0  0  0  0  0  0
    0.0714   -1.6500    0.0000 N   0  0  0  0  0  0  0  0  0  0  0  0
    0.0714   -2.4750    0.0000 C   0  0  0  0  0  0  0  0  0  0  0  0
    0.7859   -2.8875    0.0000 O   0  0  0  0  0  0  0  0  0  0  0  0
    0.7859   -3.7125    0.0000 C   0  0  0  0  0  0  0  0  0  0  0  0
   -0.6430   -2.8875    0.0000 N   0  0  0  0  0  0  0  0  0  0  0  0
   -1.3575   -2.4750    0.0000 C   0  0  0  0  0  0  0  0  0  0  0  0
   -2.0720   -2.8875    0.0000 C   0  0  0  0  0  0  0  0  0  0  0  0
   -2.7864   -2.4750    0.0000 O   0  0  0  0  0  0  0  0  0  0  0  0
   -2.0720   -3.7125    0.0000 C   0  0  0  0  0  0  0  0  0  0  0  0
   -1.3575   -4.1250    0.0000 C   0  0  0  0  0  0  0  0  0  0  0  0
   -1.3575   -4.9500    0.0000 C   0  0  0  0  0  0  0  0  0  0  0  0
   -2.0720   -5.3625    0.0000 C   0  0  0  0  0  0  0  0  0  0  0  0
   -2.7864   -4.9500    0.0000 C   0  0  0  0  0  0  0  0  0  0  0  0
   -3.5009   -5.3625    0.0000 F   0  0  0  0  0  0  0  0  0  0  0  0
   -2.7864   -4.1250    0.0000 C   0  0  0  0  0  0  0  0  0  0  0  0
   -3.5009   -3.7125    0.0000 N   0  0  0  0  0  0  0  0  0  0  0  0
   -3.5009   -2.8875    0.0000 C   0  0  0  0  0  0  0  0  0  0  0  0
   -4.2154   -4.1250    0.0000 S   0  0  0  0  0  0  0  0  0  0  0  0
   -4.6279   -3.4105    0.0000 O   0  0  0  0  0  0  0  0  0  0  0  0
   -3.8029   -4.8395    0.0000 O   0  0  0  0  0  0  0  0  0  0  0  0
   -4.9298   -4.5375    0.0000 C   0  0  0  0  0  0  0  0  0  0  0  0
   -4.9298   -5.3625    0.0000 F   0  0  0  0  0  0  0  0  0  0  0  0
   -5.6443   -4.1250    0.0000 F   0  0  0  0  0  0  0  0  0  0  0  0
   -1.3575   -1.6500    0.0000 N   0  0  0  0  0  0  0  0  0  0  0  0
    0.4839   -0.7145    0.0000 H   0  0  0  0  0  0  0  0  0  0  0  0
    0.7859    0.4125    0.0000 H   0  0  0  0  0  0  0  0  0  0  0  0
   -0.3411    0.7145    0.0000 H   0  0  0  0  0  0  0  0  0  0  0  0
   -0.0391   -3.7125    0.0000 H   0  0  0  0  0  0  0  0  0  0  0  0
    0.7859   -4.5375    0.0000 H   0  0  0  0  0  0  0  0  0  0  0  0
    1.6109   -3.7125    0.0000 H   0  0  0  0  0  0  0  0  0  0  0  0
   -0.6430   -3.7125    0.0000 H   0  0  0  0  0  0  0  0  0  0  0  0
   -0.6430   -5.3625    0.0000 H   0  0  0  0  0  0  0  0  0  0  0  0
   -2.0720   -6.1875    0.0000 H   0  0  0  0  0  0  0  0  0  0  0  0
   -3.5009   -2.0625    0.0000 H   0  0  0  0  0  0  0  0  0  0  0  0
   -4.2154   -2.4750    0.0000 H   0  0  0  0  0  0  0  0  0  0  0  0
   -4.2154   -3.3000    0.0000 H   0  0  0  0  0  0  0  0  0  0  0  0
   -4.2154   -4.9500    0.0000 H   0  0  0  0  0  0  0  0  0  0  0  0
  1  2  1  0  0  0  0
  2  3  1  0  0  0  0
  3  4  4  0  0  0  0
  4  5  4  0  0  0  0
  5  6  1  0  0  0  0
  6  7  1  0  0  0  0
  5  8  4  0  0  0  0
  8  9  4  0  0  0  0
  9 10  1  0  0  0  0
 10 11  2  0  0  0  0
 10 12  1  0  0  0  0
 12 13  4  0  0  0  0
 13 14  4  0  0  0  0
 14 15  4  0  0  0  0
 15 16  4  0  0  0  0
 16 17  1  0  0  0  0
 16 18  4  0  0  0  0
 12 18  4  0  0  0  0
 18 19  1  0  0  0  0
 19 20  1  0  0  0  0
 19 21  1  0  0  0  0
 21 22  2  0  0  0  0
 21 23  2  0  0  0  0
 21 24  1  0  0  0  0
 24 25  1  0  0  0  0
 24 26  1  0  0  0  0
  9 27  4  0  0  0  0
  3 27  4  0  0  0  0
  1 28  1  0  0  0  0
  1 29  1  0  0  0  0
  1 30  1  0  0  0  0
  7 31  1  0  0  0  0
  7 32  1  0  0  0  0
  7 33  1  0  0  0  0
 13 34  1  0  0  0  0
 14 35  1  0  0  0  0
 15 36  1  0  0  0  0
 20 37  1  0  0  0  0
 20 38  1  0  0  0  0
 20 39  1  0  0  0  0
 24 40  1  0  0  0  0
M  END
> <id>
742

> <casrn>
874195-61-6

> <smiles (First)>


> <Molecular weight>
406.3370361328125

> <name>
-

> <Outcome>
0

> <Molecule (RDKit Mol) (InChI Code)>
InChI=1S/C14H13F3N4O5S/c1-21(27(23,24)12(16)17)9-7(5-4-6-8(9)15)10(22)11-18-13(25-2)20-14(19-11)26-3/h4-6,12H,1-3H3

> <reference>
ECHA

> <molecule_form>
A

$$$$

  Mrv1812 01171911372D          

 36 37  0  0  0  0            999 V2000
    0.5825   -2.9363    0.0000 C   0  0  0  0  0  0  0  0  0  0  0  0
    1.2970   -2.5238    0.0000 C   0  0  0  0  0  0  0  0  0  0  0  0
    2.0115   -2.9363    0.0000 C   0  0  0  0  0  0  0  0  0  0  0  0
    1.2970   -1.6988    0.0000 C   0  0  0  0  0  0  0  0  0  0  0  0
    0.5825   -1.2863    0.0000 C   0  0  0  0  0  0  0  0  0  0  0  0
    0.5825   -0.4613    0.0000 C   0  0  0  0  0  0  0  0  0  0  0  0
    1.2970   -0.0488    0.0000 C   0  0  0  0  0  0  0  0  0  0  0  0
    2.0115   -0.4613    0.0000 C   0  0  0  0  0  0  0  0  0  0  0  0
    2.7260   -0.0488    0.0000 C   0  0  0  0  0  0  0  0  0  0  0  0
    2.7260    0.7762    0.0000 C   0  0  0  0  0  0  0  0  0  0  0  0
    2.0115    1.1887    0.0000 C   0  0  0  0  0  0  0  0  0  0  0  0
    3.4404    1.1887    0.0000 C   0  0  0  0  0  0  0  0  0  0  0  0
    3.4404   -0.4613    0.0000 C   0  0  0  0  0  0  0  0  0  0  0  0
    3.4404   -1.2863    0.0000 C   0  0  0  0  0  0  0  0  0  0  0  0
    2.7260   -1.6988    0.0000 C   0  0  0  0  0  0  0  0  0  0  0  0
    2.0115   -1.2863    0.0000 C   0  0  0  0  0  0  0  0  0  0  0  0
    0.1700   -2.2218    0.0000 H   0  0  0  0  0  0  0  0  0  0  0  0
   -0.1319   -3.3488    0.0000 H   0  0  0  0  0  0  0  0  0  0  0  0
    0.9950   -3.6508    0.0000 H   0  0  0  0  0  0  0  0  0  0  0  0
    1.2970   -3.3488    0.0000 H   0  0  0  0  0  0  0  0  0  0  0  0
    2.2250   -3.7332    0.0000 H   0  0  0  0  0  0  0  0  0  0  0  0
    2.8365   -2.9363    0.0000 H   0  0  0  0  0  0  0  0  0  0  0  0
    2.2250   -2.1394    0.0000 H   0  0  0  0  0  0  0  0  0  0  0  0
   -0.1319   -1.6988    0.0000 H   0  0  0  0  0  0  0  0  0  0  0  0
   -0.1319   -0.0488    0.0000 H   0  0  0  0  0  0  0  0  0  0  0  0
    1.2970    0.7762    0.0000 H   0  0  0  0  0  0  0  0  0  0  0  0
    2.0115    0.3637    0.0000 H   0  0  0  0  0  0  0  0  0  0  0  0
    2.7260    1.6012    0.0000 H   0  0  0  0  0  0  0  0  0  0  0  0
    2.0115    2.0137    0.0000 H   0  0  0  0  0  0  0  0  0  0  0  0
    1.2970    1.6012    0.0000 H   0  0  0  0  0  0  0  0  0  0  0  0
    3.6540    0.3918    0.0000 H   0  0  0  0  0  0  0  0  0  0  0  0
    4.2654    1.1887    0.0000 H   0  0  0  0  0  0  0  0  0  0  0  0
    3.6540    1.9856    0.0000 H   0  0  0  0  0  0  0  0  0  0  0  0
    4.2592   -0.5622    0.0000 H   0  0  0  0  0  0  0  0  0  0  0  0
    4.1549   -1.6988    0.0000 H   0  0  0  0  0  0  0  0  0  0  0  0
    3.2070   -2.3691    0.0000 H   0  0  0  0  0  0  0  0  0  0  0  0
  1  2  1  0  0  0  0
  2  3  1  0  0  0  0
  2  4  1  0  0  0  0
  4  5  4  0  0  0  0
  5  6  4  0  0  0  0
  6  7  4  0  0  0  0
  7  8  4  0  0  0  0
  8  9  4  0  0  0  0
  9 10  1  0  0  0  0
 10 11  1  0  0  0  0
 10 12  1  0  0  0  0
  9 13  4  0  0  0  0
 13 14  4  0  0  0  0
 14 15  4  0  0  0  0
 15 16  4  0  0  0  0
  4 16  4  0  0  0  0
  8 16  4  0  0  0  0
  1 17  1  0  0  0  0
  1 18  1  0  0  0  0
  1 19  1  0  0  0  0
  2 20  1  0  0  0  0
  3 21  1  0  0  0  0
  3 22  1  0  0  0  0
  3 23  1  0  0  0  0
  5 24  1  0  0  0  0
  6 25  1  0  0  0  0
  7 26  1  0  0  0  0
 10 27  1  0  0  0  0
 11 28  1  0  0  0  0
 11 29  1  0  0  0  0
 11 30  1  0  0  0  0
 12 31  1  0  0  0  0
 12 32  1  0  0  0  0
 12 33  1  0  0  0  0
 13 34  1  0  0  0  0
 14 35  1  0  0  0  0
 15 36  1  0  0  0  0
M  END
> <id>
923

> <casrn>
38640-62-9

> <smiles (First)>


> <Molecular weight>
212.3300018310547

> <name>
1,2-bis(propan-2-yl)naphthalene

> <Outcome>
0

> <Molecule (RDKit Mol) (InChI Code)>
InChI=1S/C16H20/c1-11(2)13-7-5-10-16-14(12(3)4)8-6-9-15(13)16/h5-12H,1-4H3

> <reference>
ECHA

> <molecule_form>
A

$$$$

  Mrv1812 01171911372D          

 24 24  0  0  0  0            999 V2000
    2.4118    1.2504    0.0000 C   0  0  0  0  0  0  0  0  0  0  0  0
    1.6974    0.8379    0.0000 N   0  0  0  0  0  0  0  0  0  0  0  0
    1.6974    0.0129    0.0000 C   0  0  0  0  0  0  0  0  0  0  0  0
    0.9829   -0.3996    0.0000 C   0  0  0  0  0  0  0  0  0  0  0  0
    0.2684    0.0129    0.0000 O   0  0  0  0  0  0  0  0  0  0  0  0
    0.2684    0.8379    0.0000 Si  0  0  0  0  0  0  0  0  0  0  0  0
   -0.5441    0.6947    0.0000 C   0  0  0  0  0  0  0  0  0  0  0  0
   -0.0138    1.6132    0.0000 C   0  0  0  0  0  0  0  0  0  0  0  0
    0.9829    1.2504    0.0000 C   0  0  0  0  0  0  0  0  0  0  0  0
    2.8243    0.5360    0.0000 H   0  0  0  0  0  0  0  0  0  0  0  0
    3.1263    1.6629    0.0000 H   0  0  0  0  0  0  0  0  0  0  0  0
    1.9993    1.9649    0.0000 H   0  0  0  0  0  0  0  0  0  0  0  0
    2.1507   -0.6763    0.0000 H   0  0  0  0  0  0  0  0  0  0  0  0
    2.5210   -0.0350    0.0000 H   0  0  0  0  0  0  0  0  0  0  0  0
    0.6126   -1.1368    0.0000 H   0  0  0  0  0  0  0  0  0  0  0  0
    1.3531   -1.1368    0.0000 H   0  0  0  0  0  0  0  0  0  0  0  0
   -0.6873    1.5071    0.0000 H   0  0  0  0  0  0  0  0  0  0  0  0
   -1.3565    0.5514    0.0000 H   0  0  0  0  0  0  0  0  0  0  0  0
   -0.4008   -0.1178    0.0000 H   0  0  0  0  0  0  0  0  0  0  0  0
    0.8078    1.5375    0.0000 H   0  0  0  0  0  0  0  0  0  0  0  0
    0.4053    2.3238    0.0000 H   0  0  0  0  0  0  0  0  0  0  0  0
   -0.4776    2.2954    0.0000 H   0  0  0  0  0  0  0  0  0  0  0  0
    1.5592    1.8408    0.0000 H   0  0  0  0  0  0  0  0  0  0  0  0
    0.9829    0.4254    0.0000 H   0  0  0  0  0  0  0  0  0  0  0  0
  1  2  1  0  0  0  0
  2  3  1  0  0  0  0
  3  4  1  0  0  0  0
  4  5  1  0  0  0  0
  5  6  1  0  0  0  0
  6  7  1  0  0  0  0
  6  8  1  0  0  0  0
  6  9  1  0  0  0  0
  2  9  1  0  0  0  0
  1 10  1  0  0  0  0
  1 11  1  0  0  0  0
  1 12  1  0  0  0  0
  3 13  1  0  0  0  0
  3 14  1  0  0  0  0
  4 15  1  0  0  0  0
  4 16  1  0  0  0  0
  7 17  1  0  0  0  0
  7 18  1  0  0  0  0
  7 19  1  0  0  0  0
  8 20  1  0  0  0  0
  8 21  1  0  0  0  0
  8 22  1  0  0  0  0
  9 23  1  0  0  0  0
  9 24  1  0  0  0  0
M  END
> <id>
1263

> <casrn>
10196-49-3

> <smiles (First)>


> <Molecular weight>
145.27490234375

> <name>
2,2,4-trimethyl-1,4,2-oxazasilinane

> <Outcome>
0

> <Molecule (RDKit Mol) (InChI Code)>
InChI=1S/C6H15NOSi/c1-7-4-5-8-9(2,3)6-7/h4-6H2,1-3H3

> <reference>
ECHA

> <molecule_form>
V

$$$$

  Mrv1812 01171911372D          

 15 15  0  0  0  0            999 V2000
    0.5678    1.9393    0.0000 C   0  0  0  0  0  0  0  0  0  0  0  0
    0.5678    1.1143    0.0000 C   0  0  0  0  0  0  0  0  0  0  0  0
    1.2352    0.6294    0.0000 N   0  0  0  0  0  0  0  0  0  0  0  0
    0.9803   -0.1553    0.0000 C   0  0  0  0  0  0  0  0  0  0  0  0
    0.1553   -0.1553    0.0000 C   0  0  0  0  0  0  0  0  0  0  0  0
   -0.0997    0.6294    0.0000 N   0  0  0  0  0  0  0  0  0  0  0  0
   -0.8843    0.8843    0.0000 C   0  0  0  0  0  0  0  0  0  0  0  0
    1.3928    1.9393    0.0000 H   0  0  0  0  0  0  0  0  0  0  0  0
    0.5678    2.7643    0.0000 H   0  0  0  0  0  0  0  0  0  0  0  0
   -0.2572    1.9393    0.0000 H   0  0  0  0  0  0  0  0  0  0  0  0
    1.4652   -0.8227    0.0000 H   0  0  0  0  0  0  0  0  0  0  0  0
   -0.3296   -0.8227    0.0000 H   0  0  0  0  0  0  0  0  0  0  0  0
   -0.6293    1.6689    0.0000 H   0  0  0  0  0  0  0  0  0  0  0  0
   -1.6689    1.1392    0.0000 H   0  0  0  0  0  0  0  0  0  0  0  0
   -1.1392    0.0997    0.0000 H   0  0  0  0  0  0  0  0  0  0  0  0
  1  2  1  0  0  0  0
  2  3  4  0  0  0  0
  3  4  4  0  0  0  0
  4  5  4  0  0  0  0
  5  6  4  0  0  0  0
  2  6  4  0  0  0  0
  6  7  1  0  0  0  0
  1  8  1  0  0  0  0
  1  9  1  0  0  0  0
  1 10  1  0  0  0  0
  4 11  1  0  0  0  0
  5 12  1  0  0  0  0
  7 13  1  0  0  0  0
  7 14  1  0  0  0  0
  7 15  1  0  0  0  0
M  END
> <id>
940

> <casrn>
1739-84-0

> <smiles (First)>


> <Molecular weight>
96.13041687011719

> <name>
1,2-dimethyl-1H-imidazole

> <Outcome>
1

> <Molecule (RDKit Mol) (InChI Code)>
InChI=1S/C5H8N2/c1-5-6-3-4-7(5)2/h3-4H,1-2H3

> <reference>
ECHA

> <molecule_form>
A

$$$$

  Mrv1812 01171911372D          

 11 10  0  0  0  0            999 V2000
    1.7250    1.5267    0.0000 C   0  0  0  0  0  0  0  0  0  0  0  0
    1.3125    0.8122    0.0000 C   0  0  0  0  0  0  0  0  0  0  0  0
    0.9000    0.0977    0.0000 C   0  0  0  0  0  0  0  0  0  0  0  0
    1.3125   -0.6167    0.0000 C   0  0  0  0  0  0  0  0  0  0  0  0
    0.0750    0.0977    0.0000 O   0  0  0  0  0  0  0  0  0  0  0  0
    2.1375    2.2412    0.0000 H   0  0  0  0  0  0  0  0  0  0  0  0
    1.7250    0.0977    0.0000 H   0  0  0  0  0  0  0  0  0  0  0  0
    0.5156   -0.8303    0.0000 H   0  0  0  0  0  0  0  0  0  0  0  0
    1.3125   -1.4417    0.0000 H   0  0  0  0  0  0  0  0  0  0  0  0
    2.1094   -0.8303    0.0000 H   0  0  0  0  0  0  0  0  0  0  0  0
   -0.3375    0.8122    0.0000 H   0  0  0  0  0  0  0  0  0  0  0  0
  1  2  3  0  0  0  0
  2  3  1  0  0  0  0
  3  4  1  0  0  0  0
  3  5  1  0  0  0  0
  1  6  1  0  0  0  0
  3  7  1  0  0  0  0
  4  8  1  0  0  0  0
  4  9  1  0  0  0  0
  4 10  1  0  0  0  0
  5 11  1  0  0  0  0
M  END
> <id>
2691

> <casrn>
2028-63-9

> <smiles (First)>


> <Molecular weight>
70.08984375

> <name>
but-3-yn-2-ol

> <Outcome>
1

> <Molecule (RDKit Mol) (InChI Code)>
InChI=1S/C4H6O/c1-3-4(2)5/h1,4-5H,2H3

> <reference>
ECHA

> <molecule_form>
V

$$$$

  Mrv1812 01171911372D          

 10 10  0  0  0  0            999 V2000
    0.5194    1.7798    0.0000 C   0  0  0  0  0  0  0  0  0  0  0  0
    0.5194    0.9548    0.0000 C   0  0  0  0  0  0  0  0  0  0  0  0
    0.9319    0.2403    0.0000 C   0  0  0  0  0  0  0  0  0  0  0  0
    0.1069    0.2403    0.0000 O   0  0  0  0  0  0  0  0  0  0  0  0
    1.3444    1.7798    0.0000 H   0  0  0  0  0  0  0  0  0  0  0  0
    0.5194    2.6048    0.0000 H   0  0  0  0  0  0  0  0  0  0  0  0
   -0.3056    1.7798    0.0000 H   0  0  0  0  0  0  0  0  0  0  0  0
   -0.2775    1.1683    0.0000 H   0  0  0  0  0  0  0  0  0  0  0  0
    1.3021   -0.4969    0.0000 H   0  0  0  0  0  0  0  0  0  0  0  0
    1.7555    0.2883    0.0000 H   0  0  0  0  0  0  0  0  0  0  0  0
  1  2  1  0  0  0  0
  2  3  1  0  0  0  0
  3  4  1  0  0  0  0
  2  4  1  0  0  0  0
  1  5  1  0  0  0  0
  1  6  1  0  0  0  0
  1  7  1  0  0  0  0
  2  8  1  0  0  0  0
  3  9  1  0  0  0  0
  3 10  1  0  0  0  0
M  END
> <id>
1642

> <casrn>
75-56-9

> <smiles (First)>


> <Molecular weight>
58.079139709472656

> <name>
2-methyloxirane

> <Outcome>
1

> <Molecule (RDKit Mol) (InChI Code)>
InChI=1S/C3H6O/c1-3-2-4-3/h3H,2H2,1H3

> <reference>
ECHA

> <molecule_form>
V

$$$$

  Mrv1812 01171911372D          

 14 14  0  0  0  0            999 V2000
    1.2448    1.8695    0.0000 O   0  0  0  0  0  0  0  0  0  0  0  0
    0.7145    1.2375    0.0000 S   0  0  0  0  0  0  0  0  0  0  0  0
    0.1842    1.8695    0.0000 O   0  0  0  0  0  0  0  0  0  0  0  0
    1.4289    0.8250    0.0000 C   0  0  0  0  0  0  0  0  0  0  0  0
    1.4289    0.0000    0.0000 S   0  0  0  0  0  0  0  0  0  0  0  0
    2.2414    0.1433    0.0000 O   0  0  0  0  0  0  0  0  0  0  0  0
    1.7111   -0.7752    0.0000 O   0  0  0  0  0  0  0  0  0  0  0  0
    0.7145   -0.4125    0.0000 O   0  0  0  0  0  0  0  0  0  0  0  0
   -0.0000    0.0000    0.0000 C   0  0  0  0  0  0  0  0  0  0  0  0
   -0.0000    0.8250    0.0000 O   0  0  0  0  0  0  0  0  0  0  0  0
    2.2525    0.8730    0.0000 H   0  0  0  0  0  0  0  0  0  0  0  0
    1.8823    1.5143    0.0000 H   0  0  0  0  0  0  0  0  0  0  0  0
   -0.8236   -0.0480    0.0000 H   0  0  0  0  0  0  0  0  0  0  0  0
   -0.4533   -0.6893    0.0000 H   0  0  0  0  0  0  0  0  0  0  0  0
  1  2  2  0  0  0  0
  2  3  2  0  0  0  0
  2  4  1  0  0  0  0
  4  5  1  0  0  0  0
  5  6  2  0  0  0  0
  5  7  2  0  0  0  0
  5  8  1  0  0  0  0
  8  9  1  0  0  0  0
  9 10  1  0  0  0  0
  2 10  1  0  0  0  0
  4 11  1  0  0  0  0
  4 12  1  0  0  0  0
  9 13  1  0  0  0  0
  9 14  1  0  0  0  0
M  END
> <id>
429

> <casrn>
99591-74-9

> <smiles (First)>


> <Molecular weight>
188.1795654296875

> <name>
-

> <Outcome>
1

> <Molecule (RDKit Mol) (InChI Code)>
InChI=1S/C2H4O6S2/c3-9(4)2-10(5,6)8-1-7-9/h1-2H2

> <reference>
ECHA

> <molecule_form>
A

$$$$

  Mrv1812 01171911372D          

 27 27  0  0  0  0            999 V2000
    0.1595    2.6452    0.0000 C   0  0  0  0  0  0  0  0  0  0  0  0
    0.8740    2.2327    0.0000 C   0  0  0  0  0  0  0  0  0  0  0  0
    1.5884    2.6452    0.0000 C   0  0  0  0  0  0  0  0  0  0  0  0
    0.8740    1.4077    0.0000 C   0  0  0  0  0  0  0  0  0  0  0  0
    1.5884    0.9952    0.0000 C   0  0  0  0  0  0  0  0  0  0  0  0
    1.5884    0.1702    0.0000 C   0  0  0  0  0  0  0  0  0  0  0  0
    0.8740   -0.2423    0.0000 C   0  0  0  0  0  0  0  0  0  0  0  0
    0.1595    0.1702    0.0000 C   0  0  0  0  0  0  0  0  0  0  0  0
    0.1595    0.9952    0.0000 C   0  0  0  0  0  0  0  0  0  0  0  0
    0.5720    3.3597    0.0000 H   0  0  0  0  0  0  0  0  0  0  0  0
   -0.5550    3.0577    0.0000 H   0  0  0  0  0  0  0  0  0  0  0  0
   -0.2530    1.9308    0.0000 H   0  0  0  0  0  0  0  0  0  0  0  0
    0.8740    3.0577    0.0000 H   0  0  0  0  0  0  0  0  0  0  0  0
    1.8020    1.8484    0.0000 H   0  0  0  0  0  0  0  0  0  0  0  0
    2.4134    2.6452    0.0000 H   0  0  0  0  0  0  0  0  0  0  0  0
    1.8020    3.4421    0.0000 H   0  0  0  0  0  0  0  0  0  0  0  0
    0.1595    1.8202    0.0000 H   0  0  0  0  0  0  0  0  0  0  0  0
    2.4072    0.8943    0.0000 H   0  0  0  0  0  0  0  0  0  0  0  0
    0.8740    0.5827    0.0000 H   0  0  0  0  0  0  0  0  0  0  0  0
    2.0418   -0.5190    0.0000 H   0  0  0  0  0  0  0  0  0  0  0  0
    2.4120    0.1223    0.0000 H   0  0  0  0  0  0  0  0  0  0  0  0
    0.5037   -0.9795    0.0000 H   0  0  0  0  0  0  0  0  0  0  0  0
    1.2442   -0.9795    0.0000 H   0  0  0  0  0  0  0  0  0  0  0  0
   -0.6641    0.1223    0.0000 H   0  0  0  0  0  0  0  0  0  0  0  0
   -0.2939   -0.5190    0.0000 H   0  0  0  0  0  0  0  0  0  0  0  0
   -0.6158    1.2774    0.0000 H   0  0  0  0  0  0  0  0  0  0  0  0
   -0.6158    0.7131    0.0000 H   0  0  0  0  0  0  0  0  0  0  0  0
  1  2  1  0  0  0  0
  2  3  1  0  0  0  0
  2  4  1  0  0  0  0
  4  5  1  0  0  0  0
  5  6  1  0  0  0  0
  6  7  1  0  0  0  0
  7  8  1  0  0  0  0
  8  9  1  0  0  0  0
  4  9  1  0  0  0  0
  1 10  1  0  0  0  0
  1 11  1  0  0  0  0
  1 12  1  0  0  0  0
  2 13  1  0  0  0  0
  3 14  1  0  0  0  0
  3 15  1  0  0  0  0
  3 16  1  0  0  0  0
  4 17  1  0  0  0  0
  5 18  1  0  0  0  0
  5 19  1  0  0  0  0
  6 20  1  0  0  0  0
  6 21  1  0  0  0  0
  7 22  1  0  0  0  0
  7 23  1  0  0  0  0
  8 24  1  0  0  0  0
  8 25  1  0  0  0  0
  9 26  1  0  0  0  0
  9 27  1  0  0  0  0
M  END
> <id>
3798

> <casrn>
696-29-7

> <smiles (First)>


> <Molecular weight>
126.23922729492188

> <name>
propan-2-ylcyclohexane

> <Outcome>
0

> <Molecule (RDKit Mol) (InChI Code)>
InChI=1S/C9H18/c1-8(2)9-6-4-3-5-7-9/h8-9H,3-7H2,1-2H3

> <reference>
ECHA

> <molecule_form>
A

$$$$

  Mrv1812 01171911372D          

 13 12  0  0  0  0            999 V2000
    1.2375    0.7145    0.0000 F   0  0  0  0  0  0  0  0  0  0  0  0
    0.8250    0.0000    0.0000 C   0  0  0  0  0  0  0  0  0  0  0  0
    1.2375   -0.7145    0.0000 F   0  0  0  0  0  0  0  0  0  0  0  0
   -0.0000    0.0000    0.0000 C   0  0  0  0  0  0  0  0  0  0  0  0
   -0.4125    0.7145    0.0000 F   0  0  0  0  0  0  0  0  0  0  0  0
   -0.4125   -0.7145    0.0000 O   0  0  0  0  0  0  0  0  0  0  0  0
    0.0000   -1.4289    0.0000 C   0  0  0  0  0  0  0  0  0  0  0  0
   -0.7145   -1.8414    0.0000 F   0  0  0  0  0  0  0  0  0  0  0  0
    0.7145   -1.0164    0.0000 F   0  0  0  0  0  0  0  0  0  0  0  0
    0.4125   -2.1434    0.0000 C   0  0  0  0  0  0  0  0  0  0  0  0
    0.8250   -2.8579    0.0000 F   0  0  0  0  0  0  0  0  0  0  0  0
   -0.3020   -2.5559    0.0000 F   0  0  0  0  0  0  0  0  0  0  0  0
    1.1270   -1.7309    0.0000 F   0  0  0  0  0  0  0  0  0  0  0  0
  1  2  1  0  0  0  0
  2  3  1  0  0  0  0
  2  4  2  0  0  0  0
  4  5  1  0  0  0  0
  4  6  1  0  0  0  0
  6  7  1  0  0  0  0
  7  8  1  0  0  0  0
  7  9  1  0  0  0  0
  7 10  1  0  0  0  0
 10 11  1  0  0  0  0
 10 12  1  0  0  0  0
 10 13  1  0  0  0  0
M  END
> <id>
888

> <casrn>
10493-43-3

> <smiles (First)>


> <Molecular weight>
216.02943420410156

> <name>
1,1,2-trifluoro-2-(pentafluoroethoxy)ethene

> <Outcome>
0

> <Molecule (RDKit Mol) (InChI Code)>
InChI=1S/C4F8O/c5-1(6)2(7)13-4(11,12)3(8,9)10

> <reference>
ECHA

> <molecule_form>
V

$$$$

  Mrv1812 01171911372D          

 10  9  0  0  0  0            999 V2000
    2.0625   -0.7145    0.0000 C   0  0  0  0  0  0  0  0  0  0  0  0
    1.6500    0.0000    0.0000 C   0  0  0  0  0  0  0  0  0  0  0  0
    2.0625    0.7145    0.0000 C   0  0  0  0  0  0  0  0  0  0  0  0
    0.8250    0.0000    0.0000 C   0  0  0  0  0  0  0  0  0  0  0  0
   -0.0000    0.0000    0.0000 N   0  0  0  0  0  0  0  0  0  0  0  0
    1.6500   -1.4289    0.0000 H   0  0  0  0  0  0  0  0  0  0  0  0
    2.8875   -0.7145    0.0000 H   0  0  0  0  0  0  0  0  0  0  0  0
    2.7770    0.3020    0.0000 H   0  0  0  0  0  0  0  0  0  0  0  0
    2.4750    1.4289    0.0000 H   0  0  0  0  0  0  0  0  0  0  0  0
    1.3480    1.1270    0.0000 H   0  0  0  0  0  0  0  0  0  0  0  0
  1  2  2  0  0  0  0
  2  3  1  0  0  0  0
  2  4  1  0  0  0  0
  4  5  3  0  0  0  0
  1  6  1  0  0  0  0
  1  7  1  0  0  0  0
  3  8  1  0  0  0  0
  3  9  1  0  0  0  0
  3 10  1  0  0  0  0
M  END
> <id>
3413; 3412; 3414; 3411

> <casrn>
126-98-7

> <smiles (First)>


> <Molecular weight>
67.08920288085938

> <name>
methacrylonitrile

> <Outcome>
1

> <Molecule (RDKit Mol) (InChI Code)>
InChI=1S/C4H5N/c1-4(2)3-5/h1H2,2H3

> <reference>
ECHA

> <molecule_form>
V

$$$$

  Mrv1812 01171911372D          

  9  8  0  0  0  0            999 V2000
    1.2375    0.7145    0.0000 F   0  0  0  0  0  0  0  0  0  0  0  0
    0.8250   -0.0000    0.0000 C   0  0  0  0  0  0  0  0  0  0  0  0
    1.2375   -0.7145    0.0000 F   0  0  0  0  0  0  0  0  0  0  0  0
   -0.0000   -0.0000    0.0000 C   0  0  0  0  0  0  0  0  0  0  0  0
   -0.4125    0.7145    0.0000 F   0  0  0  0  0  0  0  0  0  0  0  0
   -0.4125   -0.7145    0.0000 C   0  0  0  0  0  0  0  0  0  0  0  0
   -0.8250   -1.4289    0.0000 F   0  0  0  0  0  0  0  0  0  0  0  0
   -1.1270   -0.3020    0.0000 F   0  0  0  0  0  0  0  0  0  0  0  0
    0.3020   -1.1270    0.0000 F   0  0  0  0  0  0  0  0  0  0  0  0
  1  2  1  0  0  0  0
  2  3  1  0  0  0  0
  2  4  2  0  0  0  0
  4  5  1  0  0  0  0
  4  6  1  0  0  0  0
  6  7  1  0  0  0  0
  6  8  1  0  0  0  0
  6  9  1  0  0  0  0
M  END
> <id>
3312; 3313; 3314; 3315

> <casrn>
116-15-4

> <smiles (First)>


> <Molecular weight>
150.02252197265625

> <name>
hexafluoroprop-1-ene

> <Outcome>
1

> <Molecule (RDKit Mol) (InChI Code)>
InChI=1S/C3F6/c4-1(2(5)6)3(7,8)9

> <reference>
ECHA

> <molecule_form>
G

$$$$

  Mrv1812 01171911372D          

 24 23  0  0  0  0            999 V2000
    1.0047    1.4421    0.0000 C   0  0  0  0  0  0  0  0  0  0  0  0
    1.7191    1.8546    0.0000 C   0  0  0  0  0  0  0  0  0  0  0  0
    1.7191    2.6796    0.0000 O   0  0  0  0  0  0  0  0  0  0  0  0
    2.4336    1.4421    0.0000 O   0  0  0  0  0  0  0  0  0  0  0  0
    3.1481    1.8546    0.0000 C   0  0  0  0  0  0  0  0  0  0  0  0
    3.8625    1.4421    0.0000 C   0  0  0  0  0  0  0  0  0  0  0  0
    4.5770    1.8546    0.0000 O   0  0  0  0  0  0  0  0  0  0  0  0
    5.2915    1.4421    0.0000 C   0  0  0  0  0  0  0  0  0  0  0  0
    6.0060    1.8546    0.0000 C   0  0  0  0  0  0  0  0  0  0  0  0
    5.2915    0.6171    0.0000 C   0  0  0  0  0  0  0  0  0  0  0  0
    0.5922    2.1565    0.0000 H   0  0  0  0  0  0  0  0  0  0  0  0
    0.2902    1.0296    0.0000 H   0  0  0  0  0  0  0  0  0  0  0  0
    1.4172    0.7276    0.0000 H   0  0  0  0  0  0  0  0  0  0  0  0
    3.5183    2.5918    0.0000 H   0  0  0  0  0  0  0  0  0  0  0  0
    2.7778    2.5918    0.0000 H   0  0  0  0  0  0  0  0  0  0  0  0
    3.4923    0.7048    0.0000 H   0  0  0  0  0  0  0  0  0  0  0  0
    4.2328    0.7048    0.0000 H   0  0  0  0  0  0  0  0  0  0  0  0
    5.2915    2.2671    0.0000 H   0  0  0  0  0  0  0  0  0  0  0  0
    6.2195    1.0577    0.0000 H   0  0  0  0  0  0  0  0  0  0  0  0
    6.8310    1.8546    0.0000 H   0  0  0  0  0  0  0  0  0  0  0  0
    6.2195    2.6515    0.0000 H   0  0  0  0  0  0  0  0  0  0  0  0
    4.4665    0.6171    0.0000 H   0  0  0  0  0  0  0  0  0  0  0  0
    5.2915   -0.2079    0.0000 H   0  0  0  0  0  0  0  0  0  0  0  0
    6.1165    0.6171    0.0000 H   0  0  0  0  0  0  0  0  0  0  0  0
  1  2  1  0  0  0  0
  2  3  2  0  0  0  0
  2  4  1  0  0  0  0
  4  5  1  0  0  0  0
  5  6  1  0  0  0  0
  6  7  1  0  0  0  0
  7  8  1  0  0  0  0
  8  9  1  0  0  0  0
  8 10  1  0  0  0  0
  1 11  1  0  0  0  0
  1 12  1  0  0  0  0
  1 13  1  0  0  0  0
  5 14  1  0  0  0  0
  5 15  1  0  0  0  0
  6 16  1  0  0  0  0
  6 17  1  0  0  0  0
  8 18  1  0  0  0  0
  9 19  1  0  0  0  0
  9 20  1  0  0  0  0
  9 21  1  0  0  0  0
 10 22  1  0  0  0  0
 10 23  1  0  0  0  0
 10 24  1  0  0  0  0
M  END
> <id>
1493

> <casrn>
19234-20-9

> <smiles (First)>


> <Molecular weight>
146.18426513671875

> <name>
2-isopropoxyethyl acetate

> <Outcome>
0

> <Molecule (RDKit Mol) (InChI Code)>
InChI=1S/C7H14O3/c1-6(2)9-4-5-10-7(3)8/h6H,4-5H2,1-3H3

> <reference>
ECHA

> <molecule_form>
A

$$$$

  Mrv1812 01171911372D          

 23 22  0  0  0  0            999 V2000
    1.6728    1.8802    0.0000 C   0  0  0  0  0  0  0  0  0  0  0  0
    2.3872    1.4677    0.0000 C   0  0  0  0  0  0  0  0  0  0  0  0
    3.1017    1.8802    0.0000 O   0  0  0  0  0  0  0  0  0  0  0  0
    3.8162    1.4677    0.0000 C   0  0  0  0  0  0  0  0  0  0  0  0
    3.8162    0.6427    0.0000 O   0  0  0  0  0  0  0  0  0  0  0  0
    4.5306    1.8802    0.0000 C   0  0  0  0  0  0  0  0  0  0  0  0
    4.5306    2.7052    0.0000 C   0  0  0  0  0  0  0  0  0  0  0  0
    5.2451    1.4677    0.0000 C   0  0  0  0  0  0  0  0  0  0  0  0
    5.9596    1.8802    0.0000 C   0  0  0  0  0  0  0  0  0  0  0  0
    2.0853    2.5947    0.0000 H   0  0  0  0  0  0  0  0  0  0  0  0
    0.9583    2.2927    0.0000 H   0  0  0  0  0  0  0  0  0  0  0  0
    1.2603    1.1657    0.0000 H   0  0  0  0  0  0  0  0  0  0  0  0
    2.0170    0.7304    0.0000 H   0  0  0  0  0  0  0  0  0  0  0  0
    2.7575    0.7304    0.0000 H   0  0  0  0  0  0  0  0  0  0  0  0
    3.8162    2.2927    0.0000 H   0  0  0  0  0  0  0  0  0  0  0  0
    5.3275    2.4917    0.0000 H   0  0  0  0  0  0  0  0  0  0  0  0
    4.9431    3.4197    0.0000 H   0  0  0  0  0  0  0  0  0  0  0  0
    3.9473    3.2886    0.0000 H   0  0  0  0  0  0  0  0  0  0  0  0
    4.8748    0.7304    0.0000 H   0  0  0  0  0  0  0  0  0  0  0  0
    5.6154    0.7304    0.0000 H   0  0  0  0  0  0  0  0  0  0  0  0
    6.1239    1.0717    0.0000 H   0  0  0  0  0  0  0  0  0  0  0  0
    6.7784    1.7793    0.0000 H   0  0  0  0  0  0  0  0  0  0  0  0
    6.3153    2.6246    0.0000 H   0  0  0  0  0  0  0  0  0  0  0  0
  1  2  1  0  0  0  0
  2  3  1  0  0  0  0
  3  4  1  0  0  0  0
  4  5  2  0  0  0  0
  4  6  1  0  0  0  0
  6  7  1  0  0  0  0
  6  8  1  0  0  0  0
  8  9  1  0  0  0  0
  1 10  1  0  0  0  0
  1 11  1  0  0  0  0
  1 12  1  0  0  0  0
  2 13  1  0  0  0  0
  2 14  1  0  0  0  0
  6 15  1  0  0  0  0
  7 16  1  0  0  0  0
  7 17  1  0  0  0  0
  7 18  1  0  0  0  0
  8 19  1  0  0  0  0
  8 20  1  0  0  0  0
  9 21  1  0  0  0  0
  9 22  1  0  0  0  0
  9 23  1  0  0  0  0
M  END
> <id>
3147

> <casrn>
7452-79-1

> <smiles (First)>


> <Molecular weight>
130.1848602294922

> <name>
ethyl 2-methylbutanoate

> <Outcome>
0

> <Molecule (RDKit Mol) (InChI Code)>
InChI=1S/C7H14O2/c1-4-6(3)7(8)9-5-2/h6H,4-5H2,1-3H3

> <reference>
ECHA

> <molecule_form>
A

$$$$

  Mrv1812 01171911372D          

  9  8  0  0  0  0            999 V2000
    2.3767   -1.2031    0.0000 C   0  0  0  0  0  0  0  0  0  0  0  0
    1.9642   -0.4886    0.0000 N   0  0  0  0  0  0  0  0  0  0  0  0
    1.1392   -0.4886    0.0000 N   0  0  0  0  0  0  0  0  0  0  0  0
    1.6622   -1.6156    0.0000 H   0  0  0  0  0  0  0  0  0  0  0  0
    2.7892   -1.9176    0.0000 H   0  0  0  0  0  0  0  0  0  0  0  0
    3.0912   -0.7906    0.0000 H   0  0  0  0  0  0  0  0  0  0  0  0
    2.3767    0.2259    0.0000 H   0  0  0  0  0  0  0  0  0  0  0  0
    0.7267    0.2259    0.0000 H   0  0  0  0  0  0  0  0  0  0  0  0
    0.7267   -1.2031    0.0000 H   0  0  0  0  0  0  0  0  0  0  0  0
  1  2  1  0  0  0  0
  2  3  1  0  0  0  0
  1  4  1  0  0  0  0
  1  5  1  0  0  0  0
  1  6  1  0  0  0  0
  2  7  1  0  0  0  0
  3  8  1  0  0  0  0
  3  9  1  0  0  0  0
M  END
> <id>
3484

> <casrn>
60-34-4

> <smiles (First)>


> <Molecular weight>
46.071739196777344

> <name>
methylhydrazine

> <Outcome>
1

> <Molecule (RDKit Mol) (InChI Code)>
InChI=1S/CH6N2/c1-3-2/h3H,2H2,1H3

> <reference>
ECHA

> <molecule_form>
V

$$$$

  Mrv1812 01171911372D          

  8  7  0  0  0  0            999 V2000
    2.0625   -0.7145    0.0000 C   0  0  0  0  0  0  0  0  0  0  0  0
    1.2375   -0.7145    0.0000 C   0  0  0  0  0  0  0  0  0  0  0  0
    0.8250   -0.0000    0.0000 C   0  0  0  0  0  0  0  0  0  0  0  0
    0.0000   -0.0000    0.0000 O   0  0  0  0  0  0  0  0  0  0  0  0
    2.4750   -1.4290    0.0000 H   0  0  0  0  0  0  0  0  0  0  0  0
    2.4750   -0.0000    0.0000 H   0  0  0  0  0  0  0  0  0  0  0  0
    0.8250   -1.4290    0.0000 H   0  0  0  0  0  0  0  0  0  0  0  0
    1.2375    0.7145    0.0000 H   0  0  0  0  0  0  0  0  0  0  0  0
  1  2  2  0  0  0  0
  2  3  1  0  0  0  0
  3  4  2  0  0  0  0
  1  5  1  0  0  0  0
  1  6  1  0  0  0  0
  2  7  1  0  0  0  0
  3  8  1  0  0  0  0
M  END
> <id>
3774; 3772; 3773

> <casrn>
107-02-8

> <smiles (First)>


> <Molecular weight>
56.06326293945312

> <name>
prop-2-enal

> <Outcome>
1

> <Molecule (RDKit Mol) (InChI Code)>
InChI=1S/C3H4O/c1-2-3-4/h2-3H,1H2

> <reference>
ECHA

> <molecule_form>
V

$$$$

  Mrv1812 01171911372D          

 20 20  0  0  0  0            999 V2000
   -1.0595   -0.8035    0.0000 C   0  0  0  0  0  0  0  0  0  0  0  0
   -0.2390   -0.8898    0.0000 C   0  0  0  0  0  0  0  0  0  0  0  0
    0.2459   -0.2223    0.0000 N   0  0  0  0  0  0  0  0  0  0  0  0
   -0.0090    0.5623    0.0000 C   0  0  0  0  0  0  0  0  0  0  0  0
    0.6584    1.0472    0.0000 C   0  0  0  0  0  0  0  0  0  0  0  0
    1.3259    0.5623    0.0000 N   0  0  0  0  0  0  0  0  0  0  0  0
    2.1105    0.8172    0.0000 C   0  0  0  0  0  0  0  0  0  0  0  0
    2.2820    1.6242    0.0000 C   0  0  0  0  0  0  0  0  0  0  0  0
    1.0709   -0.2223    0.0000 C   0  0  0  0  0  0  0  0  0  0  0  0
    1.5559   -0.8898    0.0000 O   0  0  0  0  0  0  0  0  0  0  0  0
   -1.3950   -0.0498    0.0000 H   0  0  0  0  0  0  0  0  0  0  0  0
   -1.5444   -1.4710    0.0000 H   0  0  0  0  0  0  0  0  0  0  0  0
    0.0966   -1.6434    0.0000 H   0  0  0  0  0  0  0  0  0  0  0  0
   -0.5821    1.1558    0.0000 H   0  0  0  0  0  0  0  0  0  0  0  0
   -0.8215    0.4190    0.0000 H   0  0  0  0  0  0  0  0  0  0  0  0
    1.0457    1.7757    0.0000 H   0  0  0  0  0  0  0  0  0  0  0  0
    0.2711    1.7757    0.0000 H   0  0  0  0  0  0  0  0  0  0  0  0
    2.7236    0.2652    0.0000 H   0  0  0  0  0  0  0  0  0  0  0  0
    3.0666    1.8792    0.0000 H   0  0  0  0  0  0  0  0  0  0  0  0
    1.6689    2.1762    0.0000 H   0  0  0  0  0  0  0  0  0  0  0  0
  1  2  2  0  0  0  0
  2  3  1  0  0  0  0
  3  4  1  0  0  0  0
  4  5  1  0  0  0  0
  5  6  1  0  0  0  0
  6  7  1  0  0  0  0
  7  8  2  0  0  0  0
  6  9  1  0  0  0  0
  3  9  1  0  0  0  0
  9 10  2  0  0  0  0
  1 11  1  0  0  0  0
  1 12  1  0  0  0  0
  2 13  1  0  0  0  0
  4 14  1  0  0  0  0
  4 15  1  0  0  0  0
  5 16  1  0  0  0  0
  5 17  1  0  0  0  0
  7 18  1  0  0  0  0
  8 19  1  0  0  0  0
  8 20  1  0  0  0  0
M  END
> <id>
998

> <casrn>
13811-50-2

> <smiles (First)>


> <Molecular weight>
138.16709899902344

> <name>
1,3-divinylimidazolidin-2-one

> <Outcome>
0

> <Molecule (RDKit Mol) (InChI Code)>
InChI=1S/C7H10N2O/c1-3-8-5-6-9(4-2)7(8)10/h3-4H,1-2,5-6H2

> <reference>
ECHA

> <molecule_form>
A

$$$$

  Mrv1812 01171911372D          

 59 58  0  0  0  0            999 V2000
    8.4711    5.7158    0.0000 C   0  0  0  0  0  0  0  0  0  0  0  0
    9.1855    6.1283    0.0000 C   0  0  0  0  0  0  0  0  0  0  0  0
    9.9000    5.7158    0.0000 C   0  0  0  0  0  0  0  0  0  0  0  0
   10.6145    6.1283    0.0000 C   0  0  0  0  0  0  0  0  0  0  0  0
   11.3289    5.7158    0.0000 C   0  0  0  0  0  0  0  0  0  0  0  0
   12.0434    6.1283    0.0000 C   0  0  0  0  0  0  0  0  0  0  0  0
   12.7579    5.7158    0.0000 C   0  0  0  0  0  0  0  0  0  0  0  0
   13.4724    6.1283    0.0000 C   0  0  0  0  0  0  0  0  0  0  0  0
   14.1868    5.7158    0.0000 C   0  0  0  0  0  0  0  0  0  0  0  0
   14.9013    6.1283    0.0000 C   0  0  0  0  0  0  0  0  0  0  0  0
   15.6158    5.7158    0.0000 C   0  0  0  0  0  0  0  0  0  0  0  0
   16.3302    6.1283    0.0000 C   0  0  0  0  0  0  0  0  0  0  0  0
   17.0447    5.7158    0.0000 C   0  0  0  0  0  0  0  0  0  0  0  0
   17.7592    6.1283    0.0000 C   0  0  0  0  0  0  0  0  0  0  0  0
   18.4737    5.7158    0.0000 C   0  0  0  0  0  0  0  0  0  0  0  0
   19.1881    6.1283    0.0000 C   0  0  0  0  0  0  0  0  0  0  0  0
   19.9026    5.7158    0.0000 C   0  0  0  0  0  0  0  0  0  0  0  0
   20.6171    6.1283    0.0000 C   0  0  0  0  0  0  0  0  0  0  0  0
   20.6171    6.9533    0.0000 O   0  0  0  0  0  0  0  0  0  0  0  0
   21.3315    5.7158    0.0000 O   0  0  0  0  0  0  0  0  0  0  0  0
   22.0460    6.1283    0.0000 C   0  0  0  0  0  0  0  0  0  0  0  0
    8.0586    6.4303    0.0000 H   0  0  0  0  0  0  0  0  0  0  0  0
    7.7566    5.3033    0.0000 H   0  0  0  0  0  0  0  0  0  0  0  0
    8.8836    5.0013    0.0000 H   0  0  0  0  0  0  0  0  0  0  0  0
    9.5558    6.8655    0.0000 H   0  0  0  0  0  0  0  0  0  0  0  0
    8.8153    6.8655    0.0000 H   0  0  0  0  0  0  0  0  0  0  0  0
    9.5297    4.9786    0.0000 H   0  0  0  0  0  0  0  0  0  0  0  0
   10.2703    4.9786    0.0000 H   0  0  0  0  0  0  0  0  0  0  0  0
   10.9847    6.8655    0.0000 H   0  0  0  0  0  0  0  0  0  0  0  0
   10.2442    6.8655    0.0000 H   0  0  0  0  0  0  0  0  0  0  0  0
   10.9587    4.9786    0.0000 H   0  0  0  0  0  0  0  0  0  0  0  0
   11.6992    4.9786    0.0000 H   0  0  0  0  0  0  0  0  0  0  0  0
   12.4137    6.8655    0.0000 H   0  0  0  0  0  0  0  0  0  0  0  0
   11.6732    6.8655    0.0000 H   0  0  0  0  0  0  0  0  0  0  0  0
   12.3876    4.9786    0.0000 H   0  0  0  0  0  0  0  0  0  0  0  0
   13.1281    4.9786    0.0000 H   0  0  0  0  0  0  0  0  0  0  0  0
   13.8426    6.8655    0.0000 H   0  0  0  0  0  0  0  0  0  0  0  0
   13.1021    6.8655    0.0000 H   0  0  0  0  0  0  0  0  0  0  0  0
   13.8166    4.9786    0.0000 H   0  0  0  0  0  0  0  0  0  0  0  0
   14.5571    4.9786    0.0000 H   0  0  0  0  0  0  0  0  0  0  0  0
   15.2716    6.8655    0.0000 H   0  0  0  0  0  0  0  0  0  0  0  0
   14.5310    6.8655    0.0000 H   0  0  0  0  0  0  0  0  0  0  0  0
   15.2455    4.9786    0.0000 H   0  0  0  0  0  0  0  0  0  0  0  0
   15.9860    4.9786    0.0000 H   0  0  0  0  0  0  0  0  0  0  0  0
   16.7005    6.8655    0.0000 H   0  0  0  0  0  0  0  0  0  0  0  0
   15.9600    6.8655    0.0000 H   0  0  0  0  0  0  0  0  0  0  0  0
   16.6745    4.9786    0.0000 H   0  0  0  0  0  0  0  0  0  0  0  0
   17.4150    4.9786    0.0000 H   0  0  0  0  0  0  0  0  0  0  0  0
   18.1294    6.8655    0.0000 H   0  0  0  0  0  0  0  0  0  0  0  0
   17.3889    6.8655    0.0000 H   0  0  0  0  0  0  0  0  0  0  0  0
   18.1034    4.9786    0.0000 H   0  0  0  0  0  0  0  0  0  0  0  0
   18.8439    4.9786    0.0000 H   0  0  0  0  0  0  0  0  0  0  0  0
   19.5584    6.8655    0.0000 H   0  0  0  0  0  0  0  0  0  0  0  0
   18.8179    6.8655    0.0000 H   0  0  0  0  0  0  0  0  0  0  0  0
   19.5323    4.9786    0.0000 H   0  0  0  0  0  0  0  0  0  0  0  0
   20.2729    4.9786    0.0000 H   0  0  0  0  0  0  0  0  0  0  0  0
   22.4585    5.4138    0.0000 H   0  0  0  0  0  0  0  0  0  0  0  0
   22.7605    6.5408    0.0000 H   0  0  0  0  0  0  0  0  0  0  0  0
   21.6335    6.8428    0.0000 H   0  0  0  0  0  0  0  0  0  0  0  0
  1  2  1  0  0  0  0
  2  3  1  0  0  0  0
  3  4  1  0  0  0  0
  4  5  1  0  0  0  0
  5  6  1  0  0  0  0
  6  7  1  0  0  0  0
  7  8  1  0  0  0  0
  8  9  1  0  0  0  0
  9 10  1  0  0  0  0
 10 11  1  0  0  0  0
 11 12  1  0  0  0  0
 12 13  1  0  0  0  0
 13 14  1  0  0  0  0
 14 15  1  0  0  0  0
 15 16  1  0  0  0  0
 16 17  1  0  0  0  0
 17 18  1  0  0  0  0
 18 19  2  0  0  0  0
 18 20  1  0  0  0  0
 20 21  1  0  0  0  0
  1 22  1  0  0  0  0
  1 23  1  0  0  0  0
  1 24  1  0  0  0  0
  2 25  1  0  0  0  0
  2 26  1  0  0  0  0
  3 27  1  0  0  0  0
  3 28  1  0  0  0  0
  4 29  1  0  0  0  0
  4 30  1  0  0  0  0
  5 31  1  0  0  0  0
  5 32  1  0  0  0  0
  6 33  1  0  0  0  0
  6 34  1  0  0  0  0
  7 35  1  0  0  0  0
  7 36  1  0  0  0  0
  8 37  1  0  0  0  0
  8 38  1  0  0  0  0
  9 39  1  0  0  0  0
  9 40  1  0  0  0  0
 10 41  1  0  0  0  0
 10 42  1  0  0  0  0
 11 43  1  0  0  0  0
 11 44  1  0  0  0  0
 12 45  1  0  0  0  0
 12 46  1  0  0  0  0
 13 47  1  0  0  0  0
 13 48  1  0  0  0  0
 14 49  1  0  0  0  0
 14 50  1  0  0  0  0
 15 51  1  0  0  0  0
 15 52  1  0  0  0  0
 16 53  1  0  0  0  0
 16 54  1  0  0  0  0
 17 55  1  0  0  0  0
 17 56  1  0  0  0  0
 21 57  1  0  0  0  0
 21 58  1  0  0  0  0
 21 59  1  0  0  0  0
M  END
> <id>
3468

> <casrn>
112-61-8

> <smiles (First)>


> <Molecular weight>
298.5038146972656

> <name>
methyl octadecanoate

> <Outcome>
0

> <Molecule (RDKit Mol) (InChI Code)>
InChI=1S/C19H38O2/c1-3-4-5-6-7-8-9-10-11-12-13-14-15-16-17-18-19(20)21-2/h3-18H2,1-2H3

> <reference>
ECHA

> <molecule_form>
A

$$$$

  Mrv1812 01171911372D          

 42 41  0  0  0  0            999 V2000
    0.1105    0.4133    0.0000 C   0  0  0  0  0  0  0  0  0  0  0  0
    0.8250    0.0008    0.0000 C   0  0  0  0  0  0  0  0  0  0  0  0
    1.5395    0.4133    0.0000 C   0  0  0  0  0  0  0  0  0  0  0  0
    2.2539    0.8258    0.0000 C   0  0  0  0  0  0  0  0  0  0  0  0
    1.9520   -0.3011    0.0000 O   0  0  0  0  0  0  0  0  0  0  0  0
    1.5395   -1.0156    0.0000 O   0  0  0  0  0  0  0  0  0  0  0  0
    1.9520   -1.7301    0.0000 C   0  0  0  0  0  0  0  0  0  0  0  0
    2.3645   -2.4446    0.0000 C   0  0  0  0  0  0  0  0  0  0  0  0
    2.6664   -1.3176    0.0000 C   0  0  0  0  0  0  0  0  0  0  0  0
    1.2375   -2.1426    0.0000 C   0  0  0  0  0  0  0  0  0  0  0  0
    1.1270    1.1278    0.0000 O   0  0  0  0  0  0  0  0  0  0  0  0
    1.5395    1.8423    0.0000 O   0  0  0  0  0  0  0  0  0  0  0  0
    1.1270    2.5567    0.0000 C   0  0  0  0  0  0  0  0  0  0  0  0
    0.7145    3.2712    0.0000 C   0  0  0  0  0  0  0  0  0  0  0  0
    1.8414    2.9692    0.0000 C   0  0  0  0  0  0  0  0  0  0  0  0
    0.4125    2.1442    0.0000 C   0  0  0  0  0  0  0  0  0  0  0  0
    0.5230    1.1278    0.0000 H   0  0  0  0  0  0  0  0  0  0  0  0
   -0.6039    0.8258    0.0000 H   0  0  0  0  0  0  0  0  0  0  0  0
   -0.3020   -0.3011    0.0000 H   0  0  0  0  0  0  0  0  0  0  0  0
    0.4547   -0.7364    0.0000 H   0  0  0  0  0  0  0  0  0  0  0  0
    1.1953   -0.7364    0.0000 H   0  0  0  0  0  0  0  0  0  0  0  0
    2.6664    0.1114    0.0000 H   0  0  0  0  0  0  0  0  0  0  0  0
    2.9684    1.2383    0.0000 H   0  0  0  0  0  0  0  0  0  0  0  0
    1.8414    1.5403    0.0000 H   0  0  0  0  0  0  0  0  0  0  0  0
    1.6500   -2.8571    0.0000 H   0  0  0  0  0  0  0  0  0  0  0  0
    2.7770   -3.1590    0.0000 H   0  0  0  0  0  0  0  0  0  0  0  0
    3.0789   -2.0321    0.0000 H   0  0  0  0  0  0  0  0  0  0  0  0
    3.4844   -1.2099    0.0000 H   0  0  0  0  0  0  0  0  0  0  0  0
    2.8800   -0.5207    0.0000 H   0  0  0  0  0  0  0  0  0  0  0  0
    2.0119   -0.8154    0.0000 H   0  0  0  0  0  0  0  0  0  0  0  0
    1.1298   -1.3246    0.0000 H   0  0  0  0  0  0  0  0  0  0  0  0
    0.4406   -1.9291    0.0000 H   0  0  0  0  0  0  0  0  0  0  0  0
    0.7353   -2.7971    0.0000 H   0  0  0  0  0  0  0  0  0  0  0  0
    1.4289    3.6837    0.0000 H   0  0  0  0  0  0  0  0  0  0  0  0
    0.3020    3.9857    0.0000 H   0  0  0  0  0  0  0  0  0  0  0  0
   -0.0000    2.8587    0.0000 H   0  0  0  0  0  0  0  0  0  0  0  0
    1.9491    2.1513    0.0000 H   0  0  0  0  0  0  0  0  0  0  0  0
    2.6383    2.7557    0.0000 H   0  0  0  0  0  0  0  0  0  0  0  0
    2.3437    3.6238    0.0000 H   0  0  0  0  0  0  0  0  0  0  0  0
   -0.4054    2.0366    0.0000 H   0  0  0  0  0  0  0  0  0  0  0  0
    0.1990    1.3474    0.0000 H   0  0  0  0  0  0  0  0  0  0  0  0
    1.0670    1.6420    0.0000 H   0  0  0  0  0  0  0  0  0  0  0  0
  1  2  1  0  0  0  0
  2  3  1  0  0  0  0
  3  4  1  0  0  0  0
  3  5  1  0  0  0  0
  5  6  1  0  0  0  0
  6  7  1  0  0  0  0
  7  8  1  0  0  0  0
  7  9  1  0  0  0  0
  7 10  1  0  0  0  0
  3 11  1  0  0  0  0
 11 12  1  0  0  0  0
 12 13  1  0  0  0  0
 13 14  1  0  0  0  0
 13 15  1  0  0  0  0
 13 16  1  0  0  0  0
  1 17  1  0  0  0  0
  1 18  1  0  0  0  0
  1 19  1  0  0  0  0
  2 20  1  0  0  0  0
  2 21  1  0  0  0  0
  4 22  1  0  0  0  0
  4 23  1  0  0  0  0
  4 24  1  0  0  0  0
  8 25  1  0  0  0  0
  8 26  1  0  0  0  0
  8 27  1  0  0  0  0
  9 28  1  0  0  0  0
  9 29  1  0  0  0  0
  9 30  1  0  0  0  0
 10 31  1  0  0  0  0
 10 32  1  0  0  0  0
 10 33  1  0  0  0  0
 14 34  1  0  0  0  0
 14 35  1  0  0  0  0
 14 36  1  0  0  0  0
 15 37  1  0  0  0  0
 15 38  1  0  0  0  0
 15 39  1  0  0  0  0
 16 40  1  0  0  0  0
 16 41  1  0  0  0  0
 16 42  1  0  0  0  0
M  END
> <id>
2901

> <casrn>
2167-23-9

> <smiles (First)>


> <Molecular weight>
234.3324432373047

> <name>
di-tert-butyl sec-butylidene diperoxide

> <Outcome>
1

> <Molecule (RDKit Mol) (InChI Code)>
InChI=1S/C12H26O4/c1-9-12(8,15-13-10(2,3)4)16-14-11(5,6)7/h9H2,1-8H3

> <reference>
ECHA

> <molecule_form>
A

$$$$

  Mrv1812 01171911372D          

 26 25  0  0  0  0            999 V2000
    3.3235    0.2295    0.0000 C   0  0  0  0  0  0  0  0  0  0  0  0
    2.6090    0.6420    0.0000 C   0  0  0  0  0  0  0  0  0  0  0  0
    1.8946    0.2295    0.0000 C   0  0  0  0  0  0  0  0  0  0  0  0
    1.1801    0.6420    0.0000 Si  0  0  0  0  0  0  0  0  0  0  0  0
    0.4656    1.0545    0.0000 O   0  0  0  0  0  0  0  0  0  0  0  0
   -0.2488    0.6420    0.0000 C   0  0  0  0  0  0  0  0  0  0  0  0
    1.5926    1.3565    0.0000 O   0  0  0  0  0  0  0  0  0  0  0  0
    1.1801    2.0709    0.0000 C   0  0  0  0  0  0  0  0  0  0  0  0
    0.7676   -0.0725    0.0000 O   0  0  0  0  0  0  0  0  0  0  0  0
   -0.0574   -0.0725    0.0000 C   0  0  0  0  0  0  0  0  0  0  0  0
    2.9110   -0.4850    0.0000 H   0  0  0  0  0  0  0  0  0  0  0  0
    4.0380   -0.1830    0.0000 H   0  0  0  0  0  0  0  0  0  0  0  0
    3.7360    0.9440    0.0000 H   0  0  0  0  0  0  0  0  0  0  0  0
    2.9793    1.3792    0.0000 H   0  0  0  0  0  0  0  0  0  0  0  0
    2.2388    1.3792    0.0000 H   0  0  0  0  0  0  0  0  0  0  0  0
    1.5243   -0.5078    0.0000 H   0  0  0  0  0  0  0  0  0  0  0  0
    2.2648   -0.5078    0.0000 H   0  0  0  0  0  0  0  0  0  0  0  0
   -0.3028    1.4652    0.0000 H   0  0  0  0  0  0  0  0  0  0  0  0
   -1.0110    0.9577    0.0000 H   0  0  0  0  0  0  0  0  0  0  0  0
   -0.8691    0.0980    0.0000 H   0  0  0  0  0  0  0  0  0  0  0  0
    1.8946    2.4834    0.0000 H   0  0  0  0  0  0  0  0  0  0  0  0
    0.7676    2.7854    0.0000 H   0  0  0  0  0  0  0  0  0  0  0  0
    0.4656    1.6584    0.0000 H   0  0  0  0  0  0  0  0  0  0  0  0
   -0.4351   -0.8059    0.0000 H   0  0  0  0  0  0  0  0  0  0  0  0
    0.1615   -0.8679    0.0000 H   0  0  0  0  0  0  0  0  0  0  0  0
    0.4448    0.5820    0.0000 H   0  0  0  0  0  0  0  0  0  0  0  0
  1  2  1  0  0  0  0
  2  3  1  0  0  0  0
  3  4  1  0  0  0  0
  4  5  1  0  0  0  0
  5  6  1  0  0  0  0
  4  7  1  0  0  0  0
  7  8  1  0  0  0  0
  4  9  1  0  0  0  0
  9 10  1  0  0  0  0
  1 11  1  0  0  0  0
  1 12  1  0  0  0  0
  1 13  1  0  0  0  0
  2 14  1  0  0  0  0
  2 15  1  0  0  0  0
  3 16  1  0  0  0  0
  3 17  1  0  0  0  0
  6 18  1  0  0  0  0
  6 19  1  0  0  0  0
  6 20  1  0  0  0  0
  8 21  1  0  0  0  0
  8 22  1  0  0  0  0
  8 23  1  0  0  0  0
 10 24  1  0  0  0  0
 10 25  1  0  0  0  0
 10 26  1  0  0  0  0
M  END
> <id>
4089

> <casrn>
1067-25-0

> <smiles (First)>


> <Molecular weight>
164.2749481201172

> <name>
trimethoxy(propyl)silane

> <Outcome>
0

> <Molecule (RDKit Mol) (InChI Code)>
InChI=1S/C6H16O3Si/c1-5-6-10(7-2,8-3)9-4/h5-6H2,1-4H3

> <reference>
ECHA

> <molecule_form>
V

$$$$

  Mrv1812 01171911372D          

 44 43  0  0  0  0            999 V2000
    5.4183   -0.0600    0.0000 C   0  0  0  0  0  0  0  0  0  0  0  0
    4.7038   -0.4725    0.0000 C   0  0  0  0  0  0  0  0  0  0  0  0
    4.7038   -1.2975    0.0000 C   0  0  0  0  0  0  0  0  0  0  0  0
    3.9893   -0.0600    0.0000 C   0  0  0  0  0  0  0  0  0  0  0  0
    3.2748   -0.4725    0.0000 O   0  0  0  0  0  0  0  0  0  0  0  0
    2.5604   -0.0600    0.0000 P   0  0  0  0  0  0  0  0  0  0  0  0
    2.9729    0.6545    0.0000 O   0  0  0  0  0  0  0  0  0  0  0  0
    1.8459    0.3525    0.0000 O   0  0  0  0  0  0  0  0  0  0  0  0
    1.8459    1.1775    0.0000 C   0  0  0  0  0  0  0  0  0  0  0  0
    2.5604    1.5900    0.0000 C   0  0  0  0  0  0  0  0  0  0  0  0
    2.5604    2.4150    0.0000 C   0  0  0  0  0  0  0  0  0  0  0  0
    3.2748    1.1775    0.0000 C   0  0  0  0  0  0  0  0  0  0  0  0
    2.1479   -0.7745    0.0000 O   0  0  0  0  0  0  0  0  0  0  0  0
    1.3229   -0.7745    0.0000 C   0  0  0  0  0  0  0  0  0  0  0  0
    0.9104   -0.0600    0.0000 C   0  0  0  0  0  0  0  0  0  0  0  0
    1.3229    0.6545    0.0000 C   0  0  0  0  0  0  0  0  0  0  0  0
    0.0854   -0.0600    0.0000 C   0  0  0  0  0  0  0  0  0  0  0  0
    5.8308   -0.7745    0.0000 H   0  0  0  0  0  0  0  0  0  0  0  0
    6.1327    0.3525    0.0000 H   0  0  0  0  0  0  0  0  0  0  0  0
    5.0058    0.6545    0.0000 H   0  0  0  0  0  0  0  0  0  0  0  0
    5.4183   -0.8850    0.0000 H   0  0  0  0  0  0  0  0  0  0  0  0
    3.9069   -1.0840    0.0000 H   0  0  0  0  0  0  0  0  0  0  0  0
    4.2913   -2.0120    0.0000 H   0  0  0  0  0  0  0  0  0  0  0  0
    5.2871   -1.8809    0.0000 H   0  0  0  0  0  0  0  0  0  0  0  0
    4.3596    0.6772    0.0000 H   0  0  0  0  0  0  0  0  0  0  0  0
    3.6190    0.6772    0.0000 H   0  0  0  0  0  0  0  0  0  0  0  0
    1.6208    1.9712    0.0000 H   0  0  0  0  0  0  0  0  0  0  0  0
    1.1375    1.6003    0.0000 H   0  0  0  0  0  0  0  0  0  0  0  0
    1.8459    2.0025    0.0000 H   0  0  0  0  0  0  0  0  0  0  0  0
    3.3573    2.2015    0.0000 H   0  0  0  0  0  0  0  0  0  0  0  0
    2.9729    3.1295    0.0000 H   0  0  0  0  0  0  0  0  0  0  0  0
    1.9770    2.9984    0.0000 H   0  0  0  0  0  0  0  0  0  0  0  0
    4.0977    1.1185    0.0000 H   0  0  0  0  0  0  0  0  0  0  0  0
    3.8347    1.7835    0.0000 H   0  0  0  0  0  0  0  0  0  0  0  0
    3.1510    1.9931    0.0000 H   0  0  0  0  0  0  0  0  0  0  0  0
    0.6336   -1.2278    0.0000 H   0  0  0  0  0  0  0  0  0  0  0  0
    1.2749   -1.5981    0.0000 H   0  0  0  0  0  0  0  0  0  0  0  0
    1.7354   -0.0600    0.0000 H   0  0  0  0  0  0  0  0  0  0  0  0
    0.7313    1.2295    0.0000 H   0  0  0  0  0  0  0  0  0  0  0  0
    0.5091    0.7900    0.0000 H   0  0  0  0  0  0  0  0  0  0  0  0
    0.5768    0.3023    0.0000 H   0  0  0  0  0  0  0  0  0  0  0  0
   -0.5241    0.4960    0.0000 H   0  0  0  0  0  0  0  0  0  0  0  0
   -0.6162   -0.4942    0.0000 H   0  0  0  0  0  0  0  0  0  0  0  0
    0.3111   -0.8535    0.0000 H   0  0  0  0  0  0  0  0  0  0  0  0
  1  2  1  0  0  0  0
  2  3  1  0  0  0  0
  2  4  1  0  0  0  0
  4  5  1  0  0  0  0
  5  6  1  0  0  0  0
  6  7  2  0  0  0  0
  6  8  1  0  0  0  0
  8  9  1  0  0  0  0
  9 10  1  0  0  0  0
 10 11  1  0  0  0  0
 10 12  1  0  0  0  0
  6 13  1  0  0  0  0
 13 14  1  0  0  0  0
 14 15  1  0  0  0  0
 15 16  1  0  0  0  0
 15 17  1  0  0  0  0
  1 18  1  0  0  0  0
  1 19  1  0  0  0  0
  1 20  1  0  0  0  0
  2 21  1  0  0  0  0
  3 22  1  0  0  0  0
  3 23  1  0  0  0  0
  3 24  1  0  0  0  0
  4 25  1  0  0  0  0
  4 26  1  0  0  0  0
  9 27  1  0  0  0  0
  9 28  1  0  0  0  0
 10 29  1  0  0  0  0
 11 30  1  0  0  0  0
 11 31  1  0  0  0  0
 11 32  1  0  0  0  0
 12 33  1  0  0  0  0
 12 34  1  0  0  0  0
 12 35  1  0  0  0  0
 14 36  1  0  0  0  0
 14 37  1  0  0  0  0
 15 38  1  0  0  0  0
 16 39  1  0  0  0  0
 16 40  1  0  0  0  0
 16 41  1  0  0  0  0
 17 42  1  0  0  0  0
 17 43  1  0  0  0  0
 17 44  1  0  0  0  0
M  END
> <id>
4118

> <casrn>
126-71-6

> <smiles (First)>


> <Molecular weight>
266.31414794921875

> <name>
tris(2-methylpropyl) phosphate

> <Outcome>
0

> <Molecule (RDKit Mol) (InChI Code)>
InChI=1S/C12H27O4P/c1-10(2)7-14-17(13,15-8-11(3)4)16-9-12(5)6/h10-12H,7-9H2,1-6H3

> <reference>
ECHA

> <molecule_form>
A

$$$$

  Mrv1812 01171911372D          

  8  7  0  0  0  0            999 V2000
    1.7593   -1.4292    0.0000 C   0  0  0  0  0  0  0  0  0  0  0  0
    1.3468   -0.7147    0.0000 C   0  0  0  0  0  0  0  0  0  0  0  0
    0.5218   -0.7147    0.0000 Cl  0  0  0  0  0  0  0  0  0  0  0  0
    1.0448   -1.8417    0.0000 H   0  0  0  0  0  0  0  0  0  0  0  0
    2.1718   -2.1437    0.0000 H   0  0  0  0  0  0  0  0  0  0  0  0
    2.4738   -1.0167    0.0000 H   0  0  0  0  0  0  0  0  0  0  0  0
    2.0361   -0.2614    0.0000 H   0  0  0  0  0  0  0  0  0  0  0  0
    1.3948    0.1089    0.0000 H   0  0  0  0  0  0  0  0  0  0  0  0
  1  2  1  0  0  0  0
  2  3  1  0  0  0  0
  1  4  1  0  0  0  0
  1  5  1  0  0  0  0
  1  6  1  0  0  0  0
  2  7  1  0  0  0  0
  2  8  1  0  0  0  0
M  END
> <id>
2799; 2798

> <casrn>
75-00-3

> <smiles (First)>


> <Molecular weight>
64.51409912109375

> <name>
chloroethane

> <Outcome>
0

> <Molecule (RDKit Mol) (InChI Code)>
InChI=1S/C2H5Cl/c1-2-3/h2H2,1H3

> <reference>
ECHA

> <molecule_form>
V

$$$$

  Mrv1812 01171911372D          

 21 20  0  0  0  0            999 V2000
    2.5873   -1.6864    0.0000 C   0  0  0  0  0  0  0  0  0  0  0  0
    1.7623   -1.6864    0.0000 C   0  0  0  0  0  0  0  0  0  0  0  0
    1.3498   -0.9720    0.0000 C   0  0  0  0  0  0  0  0  0  0  0  0
    2.0643   -0.5595    0.0000 C   0  0  0  0  0  0  0  0  0  0  0  0
    0.6354   -1.3845    0.0000 C   0  0  0  0  0  0  0  0  0  0  0  0
    0.9373   -0.2575    0.0000 O   0  0  0  0  0  0  0  0  0  0  0  0
    0.1123   -0.2575    0.0000 C   0  0  0  0  0  0  0  0  0  0  0  0
    2.5873   -2.5114    0.0000 H   0  0  0  0  0  0  0  0  0  0  0  0
    3.4123   -1.6864    0.0000 H   0  0  0  0  0  0  0  0  0  0  0  0
    2.5873   -0.8614    0.0000 H   0  0  0  0  0  0  0  0  0  0  0  0
    1.0731   -2.1398    0.0000 H   0  0  0  0  0  0  0  0  0  0  0  0
    1.7144   -2.5101    0.0000 H   0  0  0  0  0  0  0  0  0  0  0  0
    2.7788   -0.1470    0.0000 H   0  0  0  0  0  0  0  0  0  0  0  0
    2.0643    0.2655    0.0000 H   0  0  0  0  0  0  0  0  0  0  0  0
    1.3498   -0.1470    0.0000 H   0  0  0  0  0  0  0  0  0  0  0  0
    0.5274   -0.5666    0.0000 H   0  0  0  0  0  0  0  0  0  0  0  0
   -0.1617   -1.1716    0.0000 H   0  0  0  0  0  0  0  0  0  0  0  0
    0.1339   -2.0396    0.0000 H   0  0  0  0  0  0  0  0  0  0  0  0
    0.4827    0.4797    0.0000 H   0  0  0  0  0  0  0  0  0  0  0  0
   -0.3802    0.4043    0.0000 H   0  0  0  0  0  0  0  0  0  0  0  0
   -0.7002   -0.4005    0.0000 H   0  0  0  0  0  0  0  0  0  0  0  0
  1  2  1  0  0  0  0
  2  3  1  0  0  0  0
  3  4  1  0  0  0  0
  3  5  1  0  0  0  0
  3  6  1  0  0  0  0
  6  7  1  0  0  0  0
  1  8  1  0  0  0  0
  1  9  1  0  0  0  0
  1 10  1  0  0  0  0
  2 11  1  0  0  0  0
  2 12  1  0  0  0  0
  4 13  1  0  0  0  0
  4 14  1  0  0  0  0
  4 15  1  0  0  0  0
  5 16  1  0  0  0  0
  5 17  1  0  0  0  0
  5 18  1  0  0  0  0
  7 19  1  0  0  0  0
  7 20  1  0  0  0  0
  7 21  1  0  0  0  0
M  END
> <id>
1494

> <casrn>
994-05-8

> <smiles (First)>


> <Molecular weight>
102.17475891113281

> <name>
2-methoxy-2-methylbutane

> <Outcome>
1

> <Molecule (RDKit Mol) (InChI Code)>
InChI=1S/C6H14O/c1-5-6(2,3)7-4/h5H2,1-4H3

> <reference>
ECHA

> <molecule_form>
V

$$$$

  Mrv1812 01171911372D          

 10  9  0  0  0  0            999 V2000
    0.8250    1.4289    0.0000 C   0  0  0  0  0  0  0  0  0  0  0  0
    1.2375    0.7145    0.0000 N   0  0  0  0  0  0  0  0  0  0  0  0
    0.8250   -0.0000    0.0000 C   0  0  0  0  0  0  0  0  0  0  0  0
    1.2375   -0.7145    0.0000 S   0  0  0  0  0  0  0  0  0  0  0  0
   -0.0000   -0.0000    0.0000 S   0  0  0  0  0  0  0  0  0  0  0  0
    1.5395    1.8414    0.0000 H   0  0  0  0  0  0  0  0  0  0  0  0
    0.4125    2.1434    0.0000 H   0  0  0  0  0  0  0  0  0  0  0  0
    0.1105    1.0164    0.0000 H   0  0  0  0  0  0  0  0  0  0  0  0
    2.0625    0.7145    0.0000 H   0  0  0  0  0  0  0  0  0  0  0  0
   -0.4125    0.7145    0.0000 H   0  0  0  0  0  0  0  0  0  0  0  0
  1  2  1  0  0  0  0
  2  3  1  0  0  0  0
  3  4  2  0  0  0  0
  3  5  1  0  0  0  0
  1  6  1  0  0  0  0
  1  7  1  0  0  0  0
  1  8  1  0  0  0  0
  2  9  1  0  0  0  0
  5 10  1  0  0  0  0
M  END
> <id>
3841

> <casrn>
137-42-8

> <smiles (First)>


> <Molecular weight>
106.18985748291016

> <name>
sodium (methylcarbamothioyl)sulfanide

> <Outcome>
0

> <Molecule (RDKit Mol) (InChI Code)>
InChI=1S/C2H5NS2/c1-3-2(4)5/h1H3,(H2,3,4,5)

> <reference>
ECHA

> <molecule_form>
A

$$$$

  Mrv1812 01171911372D          

 26 25  0  0  0  0            999 V2000
    1.0010    1.4299    0.0000 C   0  0  0  0  0  0  0  0  0  0  0  0
    1.7155    1.8424    0.0000 C   0  0  0  0  0  0  0  0  0  0  0  0
    2.4300    1.4299    0.0000 C   0  0  0  0  0  0  0  0  0  0  0  0
    3.1444    1.8424    0.0000 C   0  0  0  0  0  0  0  0  0  0  0  0
    3.1444    2.6674    0.0000 C   0  0  0  0  0  0  0  0  0  0  0  0
    3.8589    1.4299    0.0000 C   0  0  0  0  0  0  0  0  0  0  0  0
    3.8589    0.6049    0.0000 O   0  0  0  0  0  0  0  0  0  0  0  0
    4.5734    1.8424    0.0000 O   0  0  0  0  0  0  0  0  0  0  0  0
    5.2878    1.4299    0.0000 C   0  0  0  0  0  0  0  0  0  0  0  0
    6.0023    1.8424    0.0000 C   0  0  0  0  0  0  0  0  0  0  0  0
    0.5885    2.1444    0.0000 H   0  0  0  0  0  0  0  0  0  0  0  0
    0.2865    1.0174    0.0000 H   0  0  0  0  0  0  0  0  0  0  0  0
    1.4135    0.7154    0.0000 H   0  0  0  0  0  0  0  0  0  0  0  0
    2.0857    2.5797    0.0000 H   0  0  0  0  0  0  0  0  0  0  0  0
    1.3452    2.5797    0.0000 H   0  0  0  0  0  0  0  0  0  0  0  0
    2.0597    0.6927    0.0000 H   0  0  0  0  0  0  0  0  0  0  0  0
    2.8002    0.6927    0.0000 H   0  0  0  0  0  0  0  0  0  0  0  0
    2.4300    2.2549    0.0000 H   0  0  0  0  0  0  0  0  0  0  0  0
    3.9413    2.4539    0.0000 H   0  0  0  0  0  0  0  0  0  0  0  0
    3.5569    3.3819    0.0000 H   0  0  0  0  0  0  0  0  0  0  0  0
    2.5611    3.2508    0.0000 H   0  0  0  0  0  0  0  0  0  0  0  0
    4.9176    0.6927    0.0000 H   0  0  0  0  0  0  0  0  0  0  0  0
    5.6581    0.6927    0.0000 H   0  0  0  0  0  0  0  0  0  0  0  0
    6.4148    1.1279    0.0000 H   0  0  0  0  0  0  0  0  0  0  0  0
    6.7168    2.2549    0.0000 H   0  0  0  0  0  0  0  0  0  0  0  0
    5.5898    2.5569    0.0000 H   0  0  0  0  0  0  0  0  0  0  0  0
  1  2  1  0  0  0  0
  2  3  1  0  0  0  0
  3  4  1  0  0  0  0
  4  5  1  0  0  0  0
  4  6  1  0  0  0  0
  6  7  2  0  0  0  0
  6  8  1  0  0  0  0
  8  9  1  0  0  0  0
  9 10  1  0  0  0  0
  1 11  1  0  0  0  0
  1 12  1  0  0  0  0
  1 13  1  0  0  0  0
  2 14  1  0  0  0  0
  2 15  1  0  0  0  0
  3 16  1  0  0  0  0
  3 17  1  0  0  0  0
  4 18  1  0  0  0  0
  5 19  1  0  0  0  0
  5 20  1  0  0  0  0
  5 21  1  0  0  0  0
  9 22  1  0  0  0  0
  9 23  1  0  0  0  0
 10 24  1  0  0  0  0
 10 25  1  0  0  0  0
 10 26  1  0  0  0  0
M  END
> <id>
3148

> <casrn>
39255-32-8

> <smiles (First)>


> <Molecular weight>
144.21144104003906

> <name>
ethyl 2-methylpentanoate

> <Outcome>
0

> <Molecule (RDKit Mol) (InChI Code)>
InChI=1S/C8H16O2/c1-4-6-7(3)8(9)10-5-2/h7H,4-6H2,1-3H3

> <reference>
ECHA

> <molecule_form>
A

$$$$

  Mrv1812 01171911372D          

 23 23  0  0  0  0            999 V2000
   -0.7227    3.6774    0.0000 C   0  0  0  0  0  0  0  0  0  0  0  0
   -0.0083    3.2649    0.0000 C   0  0  0  0  0  0  0  0  0  0  0  0
    0.7062    3.6774    0.0000 O   0  0  0  0  0  0  0  0  0  0  0  0
   -0.0083    2.4399    0.0000 C   0  0  0  0  0  0  0  0  0  0  0  0
    0.7062    2.0274    0.0000 O   0  0  0  0  0  0  0  0  0  0  0  0
    0.7062    1.2024    0.0000 C   0  0  0  0  0  0  0  0  0  0  0  0
    1.4207    0.7899    0.0000 C   0  0  0  0  0  0  0  0  0  0  0  0
    1.4207   -0.0351    0.0000 C   0  0  0  0  0  0  0  0  0  0  0  0
    0.7062   -0.4476    0.0000 C   0  0  0  0  0  0  0  0  0  0  0  0
   -0.0083   -0.0351    0.0000 C   0  0  0  0  0  0  0  0  0  0  0  0
   -0.0083    0.7899    0.0000 C   0  0  0  0  0  0  0  0  0  0  0  0
   -0.3102    4.3918    0.0000 H   0  0  0  0  0  0  0  0  0  0  0  0
   -1.4372    4.0899    0.0000 H   0  0  0  0  0  0  0  0  0  0  0  0
   -1.1352    2.9629    0.0000 H   0  0  0  0  0  0  0  0  0  0  0  0
   -0.0083    4.0899    0.0000 H   0  0  0  0  0  0  0  0  0  0  0  0
    1.5312    3.6774    0.0000 H   0  0  0  0  0  0  0  0  0  0  0  0
   -0.8319    2.3919    0.0000 H   0  0  0  0  0  0  0  0  0  0  0  0
   -0.4616    1.7506    0.0000 H   0  0  0  0  0  0  0  0  0  0  0  0
    2.1351    1.2024    0.0000 H   0  0  0  0  0  0  0  0  0  0  0  0
    2.1351   -0.4476    0.0000 H   0  0  0  0  0  0  0  0  0  0  0  0
    0.7062   -1.2726    0.0000 H   0  0  0  0  0  0  0  0  0  0  0  0
   -0.7227   -0.4476    0.0000 H   0  0  0  0  0  0  0  0  0  0  0  0
   -0.7227    1.2024    0.0000 H   0  0  0  0  0  0  0  0  0  0  0  0
  1  2  1  0  0  0  0
  2  3  1  0  0  0  0
  2  4  1  0  0  0  0
  4  5  1  0  0  0  0
  5  6  1  0  0  0  0
  6  7  4  0  0  0  0
  7  8  4  0  0  0  0
  8  9  4  0  0  0  0
  9 10  4  0  0  0  0
 10 11  4  0  0  0  0
  6 11  4  0  0  0  0
  1 12  1  0  0  0  0
  1 13  1  0  0  0  0
  1 14  1  0  0  0  0
  2 15  1  0  0  0  0
  3 16  1  0  0  0  0
  4 17  1  0  0  0  0
  4 18  1  0  0  0  0
  7 19  1  0  0  0  0
  8 20  1  0  0  0  0
  9 21  1  0  0  0  0
 10 22  1  0  0  0  0
 11 23  1  0  0  0  0
M  END
> <id>
1207

> <casrn>
770-35-4

> <smiles (First)>


> <Molecular weight>
152.1903839111328

> <name>
1-phenoxypropan-2-ol

> <Outcome>
0

> <Molecule (RDKit Mol) (InChI Code)>
InChI=1S/C9H12O2/c1-8(10)7-11-9-5-3-2-4-6-9/h2-6,8,10H,7H2,1H3

> <reference>
ECHA

> <molecule_form>
A

$$$$

  Mrv1812 01171911372D          

 42 43  0  0  0  0            999 V2000
    0.0315   -0.0398    0.0000 C   0  0  0  0  0  0  0  0  0  0  0  0
   -0.6830   -0.4523    0.0000 O   0  0  0  0  0  0  0  0  0  0  0  0
   -0.6830   -1.2773    0.0000 C   0  0  0  0  0  0  0  0  0  0  0  0
    0.0315   -1.6898    0.0000 C   0  0  0  0  0  0  0  0  0  0  0  0
    0.7460   -1.2773    0.0000 C   0  0  0  0  0  0  0  0  0  0  0  0
    0.7460   -0.4523    0.0000 O   0  0  0  0  0  0  0  0  0  0  0  0
    1.4604   -1.6898    0.0000 O   0  0  0  0  0  0  0  0  0  0  0  0
    1.4604   -2.5148    0.0000 C   0  0  0  0  0  0  0  0  0  0  0  0
    0.0315   -2.5148    0.0000 C   0  0  0  0  0  0  0  0  0  0  0  0
    0.7460   -2.9273    0.0000 C   0  0  0  0  0  0  0  0  0  0  0  0
    0.7460   -3.7523    0.0000 C   0  0  0  0  0  0  0  0  0  0  0  0
    0.0315   -4.1648    0.0000 C   0  0  0  0  0  0  0  0  0  0  0  0
   -0.6830   -3.7523    0.0000 C   0  0  0  0  0  0  0  0  0  0  0  0
   -0.6830   -2.9273    0.0000 C   0  0  0  0  0  0  0  0  0  0  0  0
   -1.3974   -2.5148    0.0000 C   0  0  0  0  0  0  0  0  0  0  0  0
   -1.3974   -1.6898    0.0000 O   0  0  0  0  0  0  0  0  0  0  0  0
   -2.1119   -1.2773    0.0000 C   0  0  0  0  0  0  0  0  0  0  0  0
   -2.8264   -1.6898    0.0000 C   0  0  0  0  0  0  0  0  0  0  0  0
   -3.5408   -1.2773    0.0000 C   0  0  0  0  0  0  0  0  0  0  0  0
   -3.5408   -0.4523    0.0000 C   0  0  0  0  0  0  0  0  0  0  0  0
   -2.8264   -0.0398    0.0000 C   0  0  0  0  0  0  0  0  0  0  0  0
   -2.8264    0.7852    0.0000 C   0  0  0  0  0  0  0  0  0  0  0  0
   -2.8264    1.6102    0.0000 F   0  0  0  0  0  0  0  0  0  0  0  0
   -2.0014    0.7852    0.0000 F   0  0  0  0  0  0  0  0  0  0  0  0
   -3.6514    0.7852    0.0000 F   0  0  0  0  0  0  0  0  0  0  0  0
   -2.1119   -0.4523    0.0000 N   0  0  0  0  0  0  0  0  0  0  0  0
    0.7460    0.3727    0.0000 H   0  0  0  0  0  0  0  0  0  0  0  0
    0.0315    0.7852    0.0000 H   0  0  0  0  0  0  0  0  0  0  0  0
   -0.6830    0.3727    0.0000 H   0  0  0  0  0  0  0  0  0  0  0  0
   -1.3974   -0.8648    0.0000 H   0  0  0  0  0  0  0  0  0  0  0  0
    1.4604   -3.3398    0.0000 H   0  0  0  0  0  0  0  0  0  0  0  0
    2.1749   -2.9273    0.0000 H   0  0  0  0  0  0  0  0  0  0  0  0
    2.1749   -2.1023    0.0000 H   0  0  0  0  0  0  0  0  0  0  0  0
    0.7460   -2.1023    0.0000 H   0  0  0  0  0  0  0  0  0  0  0  0
    1.1585   -4.4667    0.0000 H   0  0  0  0  0  0  0  0  0  0  0  0
    0.0315   -4.9898    0.0000 H   0  0  0  0  0  0  0  0  0  0  0  0
   -1.3974   -4.1648    0.0000 H   0  0  0  0  0  0  0  0  0  0  0  0
   -2.2210   -2.5627    0.0000 H   0  0  0  0  0  0  0  0  0  0  0  0
   -1.8508   -3.2040    0.0000 H   0  0  0  0  0  0  0  0  0  0  0  0
   -2.8264   -2.5148    0.0000 H   0  0  0  0  0  0  0  0  0  0  0  0
   -4.2553   -1.6898    0.0000 H   0  0  0  0  0  0  0  0  0  0  0  0
   -4.2553   -0.0398    0.0000 H   0  0  0  0  0  0  0  0  0  0  0  0
  1  2  1  0  0  0  0
  3  2  1  4  0  0  0
  3  4  2  0  0  0  0
  4  5  1  0  0  0  0
  5  6  2  0  0  0  0
  5  7  1  0  0  0  0
  7  8  1  0  0  0  0
  4  9  1  0  0  0  0
  9 10  4  0  0  0  0
 10 11  4  0  0  0  0
 11 12  4  0  0  0  0
 12 13  4  0  0  0  0
 13 14  4  0  0  0  0
  9 14  4  0  0  0  0
 14 15  1  0  0  0  0
 15 16  1  0  0  0  0
 16 17  1  0  0  0  0
 17 18  4  0  0  0  0
 18 19  4  0  0  0  0
 19 20  4  0  0  0  0
 20 21  4  0  0  0  0
 21 22  1  0  0  0  0
 22 23  1  0  0  0  0
 22 24  1  0  0  0  0
 22 25  1  0  0  0  0
 21 26  4  0  0  0  0
 17 26  4  0  0  0  0
  1 27  1  0  0  0  0
  1 28  1  0  0  0  0
  1 29  1  0  0  0  0
  3 30  1  0  0  0  0
  8 31  1  0  0  0  0
  8 32  1  0  0  0  0
  8 33  1  0  0  0  0
 10 34  1  0  0  0  0
 11 35  1  0  0  0  0
 12 36  1  0  0  0  0
 13 37  1  0  0  0  0
 15 38  1  0  0  0  0
 15 39  1  0  0  0  0
 18 40  1  0  0  0  0
 19 41  1  0  0  0  0
 20 42  1  0  0  0  0
M  END
> <id>
4154; 4153

> <casrn>
117428-22-5

> <smiles (First)>


> <Molecular weight>
367.31915283203125

> <name>
unnamed [117428-22-5]

> <Outcome>
1

> <Molecule (RDKit Mol) (InChI Code)>
InChI=1S/C18H16F3NO4/c1-24-11-14(17(23)25-2)13-7-4-3-6-12(13)10-26-16-9-5-8-15(22-16)18(19,20)21/h3-9,11H,10H2,1-2H3

> <reference>
ECHA

> <molecule_form>
A

$$$$

  Mrv1812 01171911372D          

 26 25  0  0  0  0            999 V2000
    2.2836    2.1434    0.0000 N   0  0  0  0  0  0  0  0  0  0  0  0
    2.9980    2.5559    0.0000 N   0  0  0  0  0  0  0  0  0  0  0  0
    3.7125    2.1434    0.0000 C   0  0  0  0  0  0  0  0  0  0  0  0
    3.7125    1.3184    0.0000 O   0  0  0  0  0  0  0  0  0  0  0  0
    4.4270    2.5559    0.0000 C   0  0  0  0  0  0  0  0  0  0  0  0
    5.1414    2.1434    0.0000 C   0  0  0  0  0  0  0  0  0  0  0  0
    5.8559    2.5559    0.0000 C   0  0  0  0  0  0  0  0  0  0  0  0
    6.5704    2.1434    0.0000 C   0  0  0  0  0  0  0  0  0  0  0  0
    7.2849    2.5559    0.0000 C   0  0  0  0  0  0  0  0  0  0  0  0
    7.2849    3.3809    0.0000 O   0  0  0  0  0  0  0  0  0  0  0  0
    7.9993    2.1434    0.0000 N   0  0  0  0  0  0  0  0  0  0  0  0
    8.7138    2.5559    0.0000 N   0  0  0  0  0  0  0  0  0  0  0  0
    1.5691    2.5559    0.0000 H   0  0  0  0  0  0  0  0  0  0  0  0
    2.2836    1.3184    0.0000 H   0  0  0  0  0  0  0  0  0  0  0  0
    2.9980    3.3809    0.0000 H   0  0  0  0  0  0  0  0  0  0  0  0
    4.7972    3.2931    0.0000 H   0  0  0  0  0  0  0  0  0  0  0  0
    4.0567    3.2931    0.0000 H   0  0  0  0  0  0  0  0  0  0  0  0
    4.7712    1.4062    0.0000 H   0  0  0  0  0  0  0  0  0  0  0  0
    5.5117    1.4062    0.0000 H   0  0  0  0  0  0  0  0  0  0  0  0
    6.2262    3.2931    0.0000 H   0  0  0  0  0  0  0  0  0  0  0  0
    5.4857    3.2931    0.0000 H   0  0  0  0  0  0  0  0  0  0  0  0
    6.2001    1.4062    0.0000 H   0  0  0  0  0  0  0  0  0  0  0  0
    6.9406    1.4062    0.0000 H   0  0  0  0  0  0  0  0  0  0  0  0
    7.9993    1.3184    0.0000 H   0  0  0  0  0  0  0  0  0  0  0  0
    9.4283    2.1434    0.0000 H   0  0  0  0  0  0  0  0  0  0  0  0
    8.7138    3.3809    0.0000 H   0  0  0  0  0  0  0  0  0  0  0  0
  1  2  1  0  0  0  0
  2  3  1  0  0  0  0
  3  4  2  0  0  0  0
  3  5  1  0  0  0  0
  5  6  1  0  0  0  0
  6  7  1  0  0  0  0
  7  8  1  0  0  0  0
  8  9  1  0  0  0  0
  9 10  2  0  0  0  0
  9 11  1  0  0  0  0
 11 12  1  0  0  0  0
  1 13  1  0  0  0  0
  1 14  1  0  0  0  0
  2 15  1  0  0  0  0
  5 16  1  0  0  0  0
  5 17  1  0  0  0  0
  6 18  1  0  0  0  0
  6 19  1  0  0  0  0
  7 20  1  0  0  0  0
  7 21  1  0  0  0  0
  8 22  1  0  0  0  0
  8 23  1  0  0  0  0
 11 24  1  0  0  0  0
 12 25  1  0  0  0  0
 12 26  1  0  0  0  0
M  END
> <id>
3323

> <casrn>
1071-93-8

> <smiles (First)>


> <Molecular weight>
174.20095825195312

> <name>
hexanedihydrazide

> <Outcome>
0

> <Molecule (RDKit Mol) (InChI Code)>
InChI=1S/C6H14N4O2/c7-9-5(11)3-1-2-4-6(12)10-8/h1-4,7-8H2,(H,9,11)(H,10,12)

> <reference>
ECHA

> <molecule_form>
A

$$$$

  Mrv1812 01171911372D          

 24 25  0  0  0  0            999 V2000
    2.8566   -4.1258    0.0000 O   0  0  0  0  0  0  0  0  0  0  0  0
    2.1421   -3.7133    0.0000 C   0  0  0  0  0  0  0  0  0  0  0  0
    1.4277   -4.1258    0.0000 O   0  0  0  0  0  0  0  0  0  0  0  0
    2.1421   -2.8883    0.0000 C   0  0  0  0  0  0  0  0  0  0  0  0
    1.4277   -2.4758    0.0000 O   0  0  0  0  0  0  0  0  0  0  0  0
    1.4277   -1.6508    0.0000 C   0  0  0  0  0  0  0  0  0  0  0  0
    0.7132   -1.2383    0.0000 C   0  0  0  0  0  0  0  0  0  0  0  0
    0.7132   -0.4133    0.0000 C   0  0  0  0  0  0  0  0  0  0  0  0
    1.4277   -0.0008    0.0000 C   0  0  0  0  0  0  0  0  0  0  0  0
    1.4277    0.8242    0.0000 Cl  0  0  0  0  0  0  0  0  0  0  0  0
    2.1421   -0.4133    0.0000 C   0  0  0  0  0  0  0  0  0  0  0  0
    2.8566   -0.0008    0.0000 C   0  0  0  0  0  0  0  0  0  0  0  0
    3.5711   -0.4133    0.0000 C   0  0  0  0  0  0  0  0  0  0  0  0
    3.5711   -1.2383    0.0000 C   0  0  0  0  0  0  0  0  0  0  0  0
    2.8566   -1.6508    0.0000 N   0  0  0  0  0  0  0  0  0  0  0  0
    2.1421   -1.2383    0.0000 C   0  0  0  0  0  0  0  0  0  0  0  0
    0.7132   -3.7133    0.0000 H   0  0  0  0  0  0  0  0  0  0  0  0
    2.9657   -2.8403    0.0000 H   0  0  0  0  0  0  0  0  0  0  0  0
    2.5955   -2.1990    0.0000 H   0  0  0  0  0  0  0  0  0  0  0  0
   -0.0013   -1.6508    0.0000 H   0  0  0  0  0  0  0  0  0  0  0  0
   -0.0013   -0.0008    0.0000 H   0  0  0  0  0  0  0  0  0  0  0  0
    2.8566    0.8242    0.0000 H   0  0  0  0  0  0  0  0  0  0  0  0
    4.2855   -0.0008    0.0000 H   0  0  0  0  0  0  0  0  0  0  0  0
    4.2855   -1.6508    0.0000 H   0  0  0  0  0  0  0  0  0  0  0  0
  1  2  2  0  0  0  0
  2  3  1  0  0  0  0
  2  4  1  0  0  0  0
  4  5  1  0  0  0  0
  5  6  1  0  0  0  0
  6  7  4  0  0  0  0
  7  8  4  0  0  0  0
  8  9  4  0  0  0  0
  9 10  1  0  0  0  0
  9 11  4  0  0  0  0
 11 12  4  0  0  0  0
 12 13  4  0  0  0  0
 13 14  4  0  0  0  0
 14 15  4  0  0  0  0
 15 16  4  0  0  0  0
  6 16  4  0  0  0  0
 11 16  4  0  0  0  0
  3 17  1  0  0  0  0
  4 18  1  0  0  0  0
  4 19  1  0  0  0  0
  7 20  1  0  0  0  0
  8 21  1  0  0  0  0
 12 22  1  0  0  0  0
 13 23  1  0  0  0  0
 14 24  1  0  0  0  0
M  END
> <id>
4314

> <casrn>
88349-88-6

> <smiles (First)>


> <Molecular weight>
237.63912963867188

> <name>
unnamed [88349-88-6]

> <Outcome>
0

> <Molecule (RDKit Mol) (InChI Code)>
InChI=1S/C11H8ClNO3/c12-8-3-4-9(16-6-10(14)15)11-7(8)2-1-5-13-11/h1-5H,6H2,(H,14,15)

> <reference>
ECHA

> <molecule_form>
A

$$$$

  Mrv1812 01171911372D          

 32 33  0  0  0  0            999 V2000
    0.7145   -0.4125    0.0000 C   0  0  0  0  0  0  0  0  0  0  0  0
    0.7145   -1.2375    0.0000 C   0  0  0  0  0  0  0  0  0  0  0  0
    1.4290   -1.6500    0.0000 C   0  0  0  0  0  0  0  0  0  0  0  0
    1.4290   -2.4750    0.0000 C   0  0  0  0  0  0  0  0  0  0  0  0
    2.1434   -2.8875    0.0000 C   0  0  0  0  0  0  0  0  0  0  0  0
    2.8579   -2.4750    0.0000 C   0  0  0  0  0  0  0  0  0  0  0  0
    3.5724   -2.8875    0.0000 C   0  0  0  0  0  0  0  0  0  0  0  0
    3.5724   -3.7125    0.0000 C   0  0  0  0  0  0  0  0  0  0  0  0
    4.2868   -4.1250    0.0000 N   0  0  0  0  0  0  0  0  0  0  0  0
    5.0013   -3.7125    0.0000 C   0  0  0  0  0  0  0  0  0  0  0  0
    5.7158   -3.3000    0.0000 O   0  0  0  0  0  0  0  0  0  0  0  0
    2.8579   -4.1250    0.0000 C   0  0  0  0  0  0  0  0  0  0  0  0
    2.8579   -4.9500    0.0000 C   0  0  0  0  0  0  0  0  0  0  0  0
    2.1434   -3.7125    0.0000 C   0  0  0  0  0  0  0  0  0  0  0  0
    0.7145   -2.8875    0.0000 C   0  0  0  0  0  0  0  0  0  0  0  0
    0.0000   -2.4750    0.0000 C   0  0  0  0  0  0  0  0  0  0  0  0
    0.0000   -1.6500    0.0000 C   0  0  0  0  0  0  0  0  0  0  0  0
   -0.7145   -1.2375    0.0000 N   0  0  0  0  0  0  0  0  0  0  0  0
   -1.4289   -1.6500    0.0000 C   0  0  0  0  0  0  0  0  0  0  0  0
   -2.1434   -2.0625    0.0000 O   0  0  0  0  0  0  0  0  0  0  0  0
    1.5395   -0.4125    0.0000 H   0  0  0  0  0  0  0  0  0  0  0  0
    0.7145    0.4125    0.0000 H   0  0  0  0  0  0  0  0  0  0  0  0
   -0.1105   -0.4125    0.0000 H   0  0  0  0  0  0  0  0  0  0  0  0
    2.1434   -1.2375    0.0000 H   0  0  0  0  0  0  0  0  0  0  0  0
    2.8579   -1.6500    0.0000 H   0  0  0  0  0  0  0  0  0  0  0  0
    4.2868   -2.4750    0.0000 H   0  0  0  0  0  0  0  0  0  0  0  0
    2.0329   -4.9500    0.0000 H   0  0  0  0  0  0  0  0  0  0  0  0
    2.8579   -5.7750    0.0000 H   0  0  0  0  0  0  0  0  0  0  0  0
    3.6829   -4.9500    0.0000 H   0  0  0  0  0  0  0  0  0  0  0  0
    1.4290   -4.1250    0.0000 H   0  0  0  0  0  0  0  0  0  0  0  0
    0.7145   -3.7125    0.0000 H   0  0  0  0  0  0  0  0  0  0  0  0
   -0.7145   -2.8875    0.0000 H   0  0  0  0  0  0  0  0  0  0  0  0
  1  2  1  0  0  0  0
  2  3  4  0  0  0  0
  3  4  4  0  0  0  0
  4  5  1  0  0  0  0
  5  6  4  0  0  0  0
  6  7  4  0  0  0  0
  7  8  4  0  0  0  0
  8  9  1  0  0  0  0
  9 10  2  0  0  0  0
 10 11  2  0  0  0  0
  8 12  4  0  0  0  0
 12 13  1  0  0  0  0
 12 14  4  0  0  0  0
  5 14  4  0  0  0  0
  4 15  4  0  0  0  0
 15 16  4  0  0  0  0
 16 17  4  0  0  0  0
  2 17  4  0  0  0  0
 17 18  1  0  0  0  0
 18 19  2  0  0  0  0
 19 20  2  0  0  0  0
  1 21  1  0  0  0  0
  1 22  1  0  0  0  0
  1 23  1  0  0  0  0
  3 24  1  0  0  0  0
  6 25  1  0  0  0  0
  7 26  1  0  0  0  0
 13 27  1  0  0  0  0
 13 28  1  0  0  0  0
 13 29  1  0  0  0  0
 14 30  1  0  0  0  0
 15 31  1  0  0  0  0
 16 32  1  0  0  0  0
M  END
> <id>
1172

> <casrn>
91-97-4

> <smiles (First)>


> <Molecular weight>
264.2786865234375

> <name>
1-isocyanato-4-(4-isocyanato-3-methylphenyl)-2-methylbenzene

> <Outcome>
1

> <Molecule (RDKit Mol) (InChI Code)>
InChI=1S/C16H12N2O2/c1-11-7-13(3-5-15(11)17-9-19)14-4-6-16(18-10-20)12(2)8-14/h3-8H,1-2H3

> <reference>
ECHA

> <molecule_form>
A

$$$$

  Mrv1812 01171911372D          

 43 42  0  0  0  0            999 V2000
    2.7678   -8.6737    0.0000 C   0  0  0  0  0  0  0  0  0  0  0  0
    2.7678   -7.8487    0.0000 C   0  0  0  0  0  0  0  0  0  0  0  0
    2.0533   -7.4362    0.0000 C   0  0  0  0  0  0  0  0  0  0  0  0
    2.0533   -6.6112    0.0000 C   0  0  0  0  0  0  0  0  0  0  0  0
    1.3388   -6.1987    0.0000 O   0  0  0  0  0  0  0  0  0  0  0  0
    1.3388   -5.3737    0.0000 Tl  0  0  0  0  0  0  0  0  0  0  0  0
    0.6243   -4.9612    0.0000 O   0  0  0  0  0  0  0  0  0  0  0  0
    0.6243   -4.1362    0.0000 C   0  0  0  0  0  0  0  0  0  0  0  0
   -0.0901   -3.7237    0.0000 C   0  0  0  0  0  0  0  0  0  0  0  0
   -0.0901   -2.8987    0.0000 C   0  0  0  0  0  0  0  0  0  0  0  0
   -0.8046   -2.4862    0.0000 C   0  0  0  0  0  0  0  0  0  0  0  0
    2.0533   -4.9612    0.0000 O   0  0  0  0  0  0  0  0  0  0  0  0
    2.0533   -4.1362    0.0000 C   0  0  0  0  0  0  0  0  0  0  0  0
    2.7678   -3.7237    0.0000 C   0  0  0  0  0  0  0  0  0  0  0  0
    2.7678   -2.8987    0.0000 C   0  0  0  0  0  0  0  0  0  0  0  0
    3.4822   -2.4862    0.0000 C   0  0  0  0  0  0  0  0  0  0  0  0
    1.9428   -8.6737    0.0000 H   0  0  0  0  0  0  0  0  0  0  0  0
    2.7678   -9.4987    0.0000 H   0  0  0  0  0  0  0  0  0  0  0  0
    3.5928   -8.6737    0.0000 H   0  0  0  0  0  0  0  0  0  0  0  0
    3.5914   -7.8008    0.0000 H   0  0  0  0  0  0  0  0  0  0  0  0
    3.2211   -7.1595    0.0000 H   0  0  0  0  0  0  0  0  0  0  0  0
    1.2297   -7.4842    0.0000 H   0  0  0  0  0  0  0  0  0  0  0  0
    1.5999   -8.1255    0.0000 H   0  0  0  0  0  0  0  0  0  0  0  0
    2.8769   -6.5633    0.0000 H   0  0  0  0  0  0  0  0  0  0  0  0
    2.5066   -5.9220    0.0000 H   0  0  0  0  0  0  0  0  0  0  0  0
    1.4480   -4.0883    0.0000 H   0  0  0  0  0  0  0  0  0  0  0  0
    1.0777   -3.4470    0.0000 H   0  0  0  0  0  0  0  0  0  0  0  0
   -0.9137   -3.7717    0.0000 H   0  0  0  0  0  0  0  0  0  0  0  0
   -0.5435   -4.4130    0.0000 H   0  0  0  0  0  0  0  0  0  0  0  0
    0.7335   -2.8508    0.0000 H   0  0  0  0  0  0  0  0  0  0  0  0
    0.3632   -2.2095    0.0000 H   0  0  0  0  0  0  0  0  0  0  0  0
   -0.3921   -1.7718    0.0000 H   0  0  0  0  0  0  0  0  0  0  0  0
   -1.5191   -2.0737    0.0000 H   0  0  0  0  0  0  0  0  0  0  0  0
   -1.2171   -3.2007    0.0000 H   0  0  0  0  0  0  0  0  0  0  0  0
    1.8714   -3.3315    0.0000 H   0  0  0  0  0  0  0  0  0  0  0  0
    2.7678   -4.5487    0.0000 H   0  0  0  0  0  0  0  0  0  0  0  0
    3.5430   -4.0059    0.0000 H   0  0  0  0  0  0  0  0  0  0  0  0
    3.5430   -3.4416    0.0000 H   0  0  0  0  0  0  0  0  0  0  0  0
    2.3144   -2.2095    0.0000 H   0  0  0  0  0  0  0  0  0  0  0  0
    1.9442   -2.8508    0.0000 H   0  0  0  0  0  0  0  0  0  0  0  0
    4.2884   -2.6616    0.0000 H   0  0  0  0  0  0  0  0  0  0  0  0
    3.8718   -1.7590    0.0000 H   0  0  0  0  0  0  0  0  0  0  0  0
    2.8897   -1.9122    0.0000 H   0  0  0  0  0  0  0  0  0  0  0  0
  1  2  1  0  0  0  0
  2  3  1  0  0  0  0
  3  4  1  0  0  0  0
  4  5  1  0  0  0  0
  5  6  1  0  0  0  0
  6  7  1  0  0  0  0
  7  8  1  0  0  0  0
  8  9  1  0  0  0  0
  9 10  1  0  0  0  0
 10 11  1  0  0  0  0
  6 12  1  0  0  0  0
 12 13  1  0  0  0  0
 13 14  1  0  0  0  0
 14 15  1  0  0  0  0
 15 16  1  0  0  0  0
  1 17  1  0  0  0  0
  1 18  1  0  0  0  0
  1 19  1  0  0  0  0
  2 20  1  0  0  0  0
  2 21  1  0  0  0  0
  3 22  1  0  0  0  0
  3 23  1  0  0  0  0
  4 24  1  0  0  0  0
  4 25  1  0  0  0  0
  8 26  1  0  0  0  0
  8 27  1  0  0  0  0
  9 28  1  0  0  0  0
  9 29  1  0  0  0  0
 10 30  1  0  0  0  0
 10 31  1  0  0  0  0
 11 32  1  0  0  0  0
 11 33  1  0  0  0  0
 11 34  1  0  0  0  0
 13 35  1  0  0  0  0
 13 36  1  0  0  0  0
 14 37  1  0  0  0  0
 14 38  1  0  0  0  0
 15 39  1  0  0  0  0
 15 40  1  0  0  0  0
 16 41  1  0  0  0  0
 16 42  1  0  0  0  0
 16 43  1  0  0  0  0
M  END
> <id>
2137

> <casrn>
67762-63-4

> <smiles (First)>


> <Molecular weight>
423.7242736816406

> <name>
Fatty acids, tall-oil, Bu esters

> <Outcome>
0

> <Molecule (RDKit Mol) (InChI Code)>
InChI=1S/3C4H9O.Tl/c3*1-2-3-4-5;/h3*2-4H2,1H3;/q3*-1;+3

> <reference>
ECHA

> <molecule_form>
A

$$$$

  Mrv1812 01171911372D          

 42 41  0  0  0  0            999 V2000
    1.6461   -1.8768    0.0000 C   0  0  0  0  0  0  0  0  0  0  0  0
    2.3606   -1.4643    0.0000 C   0  0  0  0  0  0  0  0  0  0  0  0
    3.0751   -1.8768    0.0000 C   0  0  0  0  0  0  0  0  0  0  0  0
    3.7895   -1.4643    0.0000 C   0  0  0  0  0  0  0  0  0  0  0  0
    4.5040   -1.8768    0.0000 C   0  0  0  0  0  0  0  0  0  0  0  0
    4.5040   -2.7018    0.0000 C   0  0  0  0  0  0  0  0  0  0  0  0
    5.2185   -3.1143    0.0000 C   0  0  0  0  0  0  0  0  0  0  0  0
    5.2185   -1.4643    0.0000 C   0  0  0  0  0  0  0  0  0  0  0  0
    5.2185   -0.6393    0.0000 O   0  0  0  0  0  0  0  0  0  0  0  0
    5.9330   -1.8768    0.0000 O   0  0  0  0  0  0  0  0  0  0  0  0
    6.6474   -1.4643    0.0000 O   0  0  0  0  0  0  0  0  0  0  0  0
    7.3619   -1.8768    0.0000 C   0  0  0  0  0  0  0  0  0  0  0  0
    6.9494   -2.5913    0.0000 C   0  0  0  0  0  0  0  0  0  0  0  0
    7.7744   -1.1623    0.0000 C   0  0  0  0  0  0  0  0  0  0  0  0
    8.0764   -2.2893    0.0000 C   0  0  0  0  0  0  0  0  0  0  0  0
    8.7908   -1.8768    0.0000 C   0  0  0  0  0  0  0  0  0  0  0  0
    1.2336   -1.1623    0.0000 H   0  0  0  0  0  0  0  0  0  0  0  0
    0.9317   -2.2893    0.0000 H   0  0  0  0  0  0  0  0  0  0  0  0
    2.0586   -2.5913    0.0000 H   0  0  0  0  0  0  0  0  0  0  0  0
    2.7309   -0.7270    0.0000 H   0  0  0  0  0  0  0  0  0  0  0  0
    1.9903   -0.7270    0.0000 H   0  0  0  0  0  0  0  0  0  0  0  0
    2.7048   -2.6140    0.0000 H   0  0  0  0  0  0  0  0  0  0  0  0
    3.4453   -2.6140    0.0000 H   0  0  0  0  0  0  0  0  0  0  0  0
    4.1598   -0.7270    0.0000 H   0  0  0  0  0  0  0  0  0  0  0  0
    3.4193   -0.7270    0.0000 H   0  0  0  0  0  0  0  0  0  0  0  0
    3.7895   -2.2893    0.0000 H   0  0  0  0  0  0  0  0  0  0  0  0
    3.8720   -3.2321    0.0000 H   0  0  0  0  0  0  0  0  0  0  0  0
    4.3608   -3.5143    0.0000 H   0  0  0  0  0  0  0  0  0  0  0  0
    5.3794   -3.9234    0.0000 H   0  0  0  0  0  0  0  0  0  0  0  0
    6.0427   -3.1503    0.0000 H   0  0  0  0  0  0  0  0  0  0  0  0
    5.4493   -2.3223    0.0000 H   0  0  0  0  0  0  0  0  0  0  0  0
    6.2349   -2.1788    0.0000 H   0  0  0  0  0  0  0  0  0  0  0  0
    6.5369   -3.3057    0.0000 H   0  0  0  0  0  0  0  0  0  0  0  0
    7.6639   -3.0038    0.0000 H   0  0  0  0  0  0  0  0  0  0  0  0
    8.4889   -1.5748    0.0000 H   0  0  0  0  0  0  0  0  0  0  0  0
    8.1869   -0.4479    0.0000 H   0  0  0  0  0  0  0  0  0  0  0  0
    7.0599   -0.7498    0.0000 H   0  0  0  0  0  0  0  0  0  0  0  0
    8.3585   -3.0645    0.0000 H   0  0  0  0  0  0  0  0  0  0  0  0
    8.8516   -2.5715    0.0000 H   0  0  0  0  0  0  0  0  0  0  0  0
    9.5053   -2.2893    0.0000 H   0  0  0  0  0  0  0  0  0  0  0  0
    9.5385   -1.5281    0.0000 H   0  0  0  0  0  0  0  0  0  0  0  0
    8.9341   -1.0643    0.0000 H   0  0  0  0  0  0  0  0  0  0  0  0
  1  2  1  0  0  0  0
  2  3  1  0  0  0  0
  3  4  1  0  0  0  0
  4  5  1  0  0  0  0
  5  6  1  0  0  0  0
  6  7  1  0  0  0  0
  5  8  1  0  0  0  0
  8  9  2  0  0  0  0
  8 10  1  0  0  0  0
 10 11  1  0  0  0  0
 11 12  1  0  0  0  0
 12 13  1  0  0  0  0
 12 14  1  0  0  0  0
 12 15  1  0  0  0  0
 15 16  1  0  0  0  0
  1 17  1  0  0  0  0
  1 18  1  0  0  0  0
  1 19  1  0  0  0  0
  2 20  1  0  0  0  0
  2 21  1  0  0  0  0
  3 22  1  0  0  0  0
  3 23  1  0  0  0  0
  4 24  1  0  0  0  0
  4 25  1  0  0  0  0
  5 26  1  0  0  0  0
  6 27  1  0  0  0  0
  6 28  1  0  0  0  0
  7 29  1  0  0  0  0
  7 30  1  0  0  0  0
  7 31  1  0  0  0  0
 13 32  1  0  0  0  0
 13 33  1  0  0  0  0
 13 34  1  0  0  0  0
 14 35  1  0  0  0  0
 14 36  1  0  0  0  0
 14 37  1  0  0  0  0
 15 38  1  0  0  0  0
 15 39  1  0  0  0  0
 16 40  1  0  0  0  0
 16 41  1  0  0  0  0
 16 42  1  0  0  0  0
M  END
> <id>
899; 900

> <casrn>
686-31-7

> <smiles (First)>


> <Molecular weight>
230.34375

> <name>
1,1-dimethylpropyl 2-(ethylperoxy)hexanoate

> <Outcome>
0

> <Molecule (RDKit Mol) (InChI Code)>
InChI=1S/C13H26O3/c1-6-9-10-11(7-2)12(14)15-16-13(4,5)8-3/h11H,6-10H2,1-5H3

> <reference>
ECHA

> <molecule_form>
A

$$$$

  Mrv1812 01171911372D          

 27 26  0  0  0  0            999 V2000
    1.0461    3.0803    0.0000 C   0  0  0  0  0  0  0  0  0  0  0  0
    1.7605    2.6678    0.0000 C   0  0  0  0  0  0  0  0  0  0  0  0
    1.7605    1.8428    0.0000 C   0  0  0  0  0  0  0  0  0  0  0  0
    2.4750    1.4303    0.0000 C   0  0  0  0  0  0  0  0  0  0  0  0
    3.1895    1.8428    0.0000 C   0  0  0  0  0  0  0  0  0  0  0  0
    3.9040    1.4303    0.0000 C   0  0  0  0  0  0  0  0  0  0  0  0
    4.6184    1.8428    0.0000 C   0  0  0  0  0  0  0  0  0  0  0  0
    5.3329    1.4303    0.0000 C   0  0  0  0  0  0  0  0  0  0  0  0
    6.0474    1.8428    0.0000 C   0  0  0  0  0  0  0  0  0  0  0  0
    1.4586    3.7947    0.0000 H   0  0  0  0  0  0  0  0  0  0  0  0
    0.3316    3.4928    0.0000 H   0  0  0  0  0  0  0  0  0  0  0  0
    0.6336    2.3658    0.0000 H   0  0  0  0  0  0  0  0  0  0  0  0
    2.4750    3.0803    0.0000 H   0  0  0  0  0  0  0  0  0  0  0  0
    1.0461    1.4303    0.0000 H   0  0  0  0  0  0  0  0  0  0  0  0
    2.1048    0.6930    0.0000 H   0  0  0  0  0  0  0  0  0  0  0  0
    2.8453    0.6930    0.0000 H   0  0  0  0  0  0  0  0  0  0  0  0
    3.5598    2.5800    0.0000 H   0  0  0  0  0  0  0  0  0  0  0  0
    2.8192    2.5800    0.0000 H   0  0  0  0  0  0  0  0  0  0  0  0
    3.5337    0.6930    0.0000 H   0  0  0  0  0  0  0  0  0  0  0  0
    4.2742    0.6930    0.0000 H   0  0  0  0  0  0  0  0  0  0  0  0
    4.9887    2.5800    0.0000 H   0  0  0  0  0  0  0  0  0  0  0  0
    4.2482    2.5800    0.0000 H   0  0  0  0  0  0  0  0  0  0  0  0
    4.9626    0.6930    0.0000 H   0  0  0  0  0  0  0  0  0  0  0  0
    5.7032    0.6930    0.0000 H   0  0  0  0  0  0  0  0  0  0  0  0
    6.4599    1.1283    0.0000 H   0  0  0  0  0  0  0  0  0  0  0  0
    6.7618    2.2553    0.0000 H   0  0  0  0  0  0  0  0  0  0  0  0
    5.6349    2.5572    0.0000 H   0  0  0  0  0  0  0  0  0  0  0  0
  2  1  1  4  0  0  0
  2  3  2  0  0  0  0
  3  4  1  0  0  0  0
  4  5  1  0  0  0  0
  5  6  1  0  0  0  0
  6  7  1  0  0  0  0
  7  8  1  0  0  0  0
  8  9  1  0  0  0  0
  1 10  1  0  0  0  0
  1 11  1  0  0  0  0
  1 12  1  0  0  0  0
  2 13  1  0  0  0  0
  3 14  1  0  0  0  0
  4 15  1  0  0  0  0
  4 16  1  0  0  0  0
  5 17  1  0  0  0  0
  5 18  1  0  0  0  0
  6 19  1  0  0  0  0
  6 20  1  0  0  0  0
  7 21  1  0  0  0  0
  7 22  1  0  0  0  0
  8 23  1  0  0  0  0
  8 24  1  0  0  0  0
  9 25  1  0  0  0  0
  9 26  1  0  0  0  0
  9 27  1  0  0  0  0
M  END
> <id>
3527; 3525; 3528; 3530; 3521; 3520; 3518; 3529; 3522; 3526; 3523; 3524; 3519

> <casrn>
27215-95-8

> <smiles (First)>


> <Molecular weight>
126.23922729492189

> <name>
non-1-ene

> <Outcome>
0

> <Molecule (RDKit Mol) (InChI Code)>
InChI=1S/C9H18/c1-3-5-7-9-8-6-4-2/h3,5H,4,6-9H2,1-2H3

> <reference>
ECHA

> <molecule_form>
V

$$$$

  Mrv1812 01171911372D          

 14 13  0  0  0  0            999 V2000
    1.0461    1.4289    0.0000 O   0  0  0  0  0  0  0  0  0  0  0  0
    1.7605    1.8414    0.0000 C   0  0  0  0  0  0  0  0  0  0  0  0
    2.4750    1.4289    0.0000 O   0  0  0  0  0  0  0  0  0  0  0  0
    3.1895    1.8414    0.0000 C   0  0  0  0  0  0  0  0  0  0  0  0
    3.9039    1.4289    0.0000 C   0  0  0  0  0  0  0  0  0  0  0  0
    4.6184    1.8414    0.0000 O   0  0  0  0  0  0  0  0  0  0  0  0
    5.3329    1.4289    0.0000 C   0  0  0  0  0  0  0  0  0  0  0  0
    6.0474    1.8414    0.0000 O   0  0  0  0  0  0  0  0  0  0  0  0
    1.7605    2.6664    0.0000 H   0  0  0  0  0  0  0  0  0  0  0  0
    3.5597    2.5786    0.0000 H   0  0  0  0  0  0  0  0  0  0  0  0
    2.8192    2.5786    0.0000 H   0  0  0  0  0  0  0  0  0  0  0  0
    3.5337    0.6917    0.0000 H   0  0  0  0  0  0  0  0  0  0  0  0
    4.2742    0.6917    0.0000 H   0  0  0  0  0  0  0  0  0  0  0  0
    5.3329    0.6039    0.0000 H   0  0  0  0  0  0  0  0  0  0  0  0
  1  2  2  0  0  0  0
  2  3  1  0  0  0  0
  3  4  1  0  0  0  0
  4  5  1  0  0  0  0
  5  6  1  0  0  0  0
  6  7  1  0  0  0  0
  7  8  2  0  0  0  0
  2  9  1  0  0  0  0
  4 10  1  0  0  0  0
  4 11  1  0  0  0  0
  5 12  1  0  0  0  0
  5 13  1  0  0  0  0
  7 14  1  0  0  0  0
M  END
> <id>
1346

> <casrn>
629-15-2

> <smiles (First)>


> <Molecular weight>
118.08804321289062

> <name>
2-(formyloxy)ethyl formate

> <Outcome>
0

> <Molecule (RDKit Mol) (InChI Code)>
InChI=1S/C4H6O4/c5-3-7-1-2-8-4-6/h3-4H,1-2H2

> <reference>
ECHA

> <molecule_form>
A

$$$$

  Mrv1812 01171911372D          

 23 22  0  0  0  0            999 V2000
    1.7605    1.8430    0.0000 C   0  0  0  0  0  0  0  0  0  0  0  0
    2.4750    1.4305    0.0000 C   0  0  0  0  0  0  0  0  0  0  0  0
    3.1895    1.8430    0.0000 C   0  0  0  0  0  0  0  0  0  0  0  0
    3.9039    1.4305    0.0000 C   0  0  0  0  0  0  0  0  0  0  0  0
    4.6184    1.8430    0.0000 C   0  0  0  0  0  0  0  0  0  0  0  0
    5.3329    1.4305    0.0000 C   0  0  0  0  0  0  0  0  0  0  0  0
    6.0474    1.8430    0.0000 C   0  0  0  0  0  0  0  0  0  0  0  0
    2.1730    2.5574    0.0000 H   0  0  0  0  0  0  0  0  0  0  0  0
    1.0461    2.2555    0.0000 H   0  0  0  0  0  0  0  0  0  0  0  0
    1.3480    1.1285    0.0000 H   0  0  0  0  0  0  0  0  0  0  0  0
    2.1047    0.6932    0.0000 H   0  0  0  0  0  0  0  0  0  0  0  0
    2.8453    0.6932    0.0000 H   0  0  0  0  0  0  0  0  0  0  0  0
    3.5597    2.5802    0.0000 H   0  0  0  0  0  0  0  0  0  0  0  0
    2.8192    2.5802    0.0000 H   0  0  0  0  0  0  0  0  0  0  0  0
    3.5337    0.6932    0.0000 H   0  0  0  0  0  0  0  0  0  0  0  0
    4.2742    0.6932    0.0000 H   0  0  0  0  0  0  0  0  0  0  0  0
    4.9887    2.5802    0.0000 H   0  0  0  0  0  0  0  0  0  0  0  0
    4.2482    2.5802    0.0000 H   0  0  0  0  0  0  0  0  0  0  0  0
    4.9626    0.6932    0.0000 H   0  0  0  0  0  0  0  0  0  0  0  0
    5.7031    0.6932    0.0000 H   0  0  0  0  0  0  0  0  0  0  0  0
    6.4599    1.1285    0.0000 H   0  0  0  0  0  0  0  0  0  0  0  0
    6.7618    2.2555    0.0000 H   0  0  0  0  0  0  0  0  0  0  0  0
    5.6349    2.5574    0.0000 H   0  0  0  0  0  0  0  0  0  0  0  0
  1  2  1  0  0  0  0
  2  3  1  0  0  0  0
  3  4  1  0  0  0  0
  4  5  1  0  0  0  0
  5  6  1  0  0  0  0
  6  7  1  0  0  0  0
  1  8  1  0  0  0  0
  1  9  1  0  0  0  0
  1 10  1  0  0  0  0
  2 11  1  0  0  0  0
  2 12  1  0  0  0  0
  3 13  1  0  0  0  0
  3 14  1  0  0  0  0
  4 15  1  0  0  0  0
  4 16  1  0  0  0  0
  5 17  1  0  0  0  0
  5 18  1  0  0  0  0
  6 19  1  0  0  0  0
  6 20  1  0  0  0  0
  7 21  1  0  0  0  0
  7 22  1  0  0  0  0
  7 23  1  0  0  0  0
M  END
> <id>
3234

> <casrn>
142-82-5

> <smiles (First)>


> <Molecular weight>
100.20194244384766

> <name>
heptane

> <Outcome>
0

> <Molecule (RDKit Mol) (InChI Code)>
InChI=1S/C7H16/c1-3-5-7-6-4-2/h3-7H2,1-2H3

> <reference>
ECHA

> <molecule_form>
V

$$$$

  Mrv1812 01171911372D          

  5  4  0  0  0  0            999 V2000
    0.8250    0.0000    0.0000 C   0  0  0  0  0  0  0  0  0  0  0  0
   -0.0000    0.0000    0.0000 I   0  0  0  0  0  0  0  0  0  0  0  0
    0.8250   -0.8250    0.0000 H   0  0  0  0  0  0  0  0  0  0  0  0
    1.6500   -0.0000    0.0000 H   0  0  0  0  0  0  0  0  0  0  0  0
    0.8250    0.8250    0.0000 H   0  0  0  0  0  0  0  0  0  0  0  0
  1  2  1  0  0  0  0
  1  3  1  0  0  0  0
  1  4  1  0  0  0  0
  1  5  1  0  0  0  0
M  END
> <id>
3364

> <casrn>
74-88-4

> <smiles (First)>


> <Molecular weight>
141.93899536132812

> <name>
iodomethane

> <Outcome>
1

> <Molecule (RDKit Mol) (InChI Code)>
InChI=1S/CH3I/c1-2/h1H3

> <reference>
ECHA

> <molecule_form>
V

$$$$

  Mrv1812 01171911372D          

 28 30  0  0  0  0            999 V2000
    0.7145   -0.4125    0.0000 O   0  0  0  0  0  0  0  0  0  0  0  0
    0.7145   -1.2375    0.0000 C   0  0  0  0  0  0  0  0  0  0  0  0
    1.3819   -1.7224    0.0000 C   0  0  0  0  0  0  0  0  0  0  0  0
    1.1270   -2.5070    0.0000 C   0  0  0  0  0  0  0  0  0  0  0  0
    0.3020   -2.5070    0.0000 C   0  0  0  0  0  0  0  0  0  0  0  0
   -0.1829   -3.1745    0.0000 O   0  0  0  0  0  0  0  0  0  0  0  0
    0.0470   -1.7224    0.0000 N   0  0  0  0  0  0  0  0  0  0  0  0
   -0.7376   -1.4675    0.0000 C   0  0  0  0  0  0  0  0  0  0  0  0
   -1.3507   -2.0195    0.0000 C   0  0  0  0  0  0  0  0  0  0  0  0
   -2.1353   -1.7646    0.0000 C   0  0  0  0  0  0  0  0  0  0  0  0
   -2.3068   -0.9576    0.0000 C   0  0  0  0  0  0  0  0  0  0  0  0
   -1.6937   -0.4056    0.0000 C   0  0  0  0  0  0  0  0  0  0  0  0
   -1.8653    0.4014    0.0000 N   0  0  0  0  0  0  0  0  0  0  0  0
   -2.6189    0.7370    0.0000 C   0  0  0  0  0  0  0  0  0  0  0  0
   -3.3334    0.3245    0.0000 O   0  0  0  0  0  0  0  0  0  0  0  0
   -2.5327    1.5574    0.0000 C   0  0  0  0  0  0  0  0  0  0  0  0
   -1.7257    1.7290    0.0000 C   0  0  0  0  0  0  0  0  0  0  0  0
   -1.3132    1.0145    0.0000 C   0  0  0  0  0  0  0  0  0  0  0  0
   -0.4927    0.9283    0.0000 O   0  0  0  0  0  0  0  0  0  0  0  0
   -0.9091   -0.6605    0.0000 C   0  0  0  0  0  0  0  0  0  0  0  0
    2.1665   -1.4675    0.0000 H   0  0  0  0  0  0  0  0  0  0  0  0
    1.6119   -3.1745    0.0000 H   0  0  0  0  0  0  0  0  0  0  0  0
   -1.1791   -2.8265    0.0000 H   0  0  0  0  0  0  0  0  0  0  0  0
   -2.7484   -2.3166    0.0000 H   0  0  0  0  0  0  0  0  0  0  0  0
   -3.0914   -0.7027    0.0000 H   0  0  0  0  0  0  0  0  0  0  0  0
   -3.1458    2.1095    0.0000 H   0  0  0  0  0  0  0  0  0  0  0  0
   -1.3902    2.4827    0.0000 H   0  0  0  0  0  0  0  0  0  0  0  0
   -0.2960   -0.1085    0.0000 H   0  0  0  0  0  0  0  0  0  0  0  0
  1  2  2  0  0  0  0
  2  3  1  0  0  0  0
  3  4  2  0  0  0  0
  4  5  1  0  0  0  0
  5  6  2  0  0  0  0
  5  7  1  0  0  0  0
  2  7  1  0  0  0  0
  7  8  1  0  0  0  0
  8  9  4  0  0  0  0
  9 10  4  0  0  0  0
 10 11  4  0  0  0  0
 11 12  4  0  0  0  0
 12 13  1  0  0  0  0
 13 14  1  0  0  0  0
 14 15  2  0  0  0  0
 14 16  1  0  0  0  0
 16 17  2  0  0  0  0
 17 18  1  0  0  0  0
 13 18  1  0  0  0  0
 18 19  2  0  0  0  0
 12 20  4  0  0  0  0
  8 20  4  0  0  0  0
  3 21  1  0  0  0  0
  4 22  1  0  0  0  0
  9 23  1  0  0  0  0
 10 24  1  0  0  0  0
 11 25  1  0  0  0  0
 16 26  1  0  0  0  0
 17 27  1  0  0  0  0
 20 28  1  0  0  0  0
M  END
> <id>
1108

> <casrn>
3006-93-7

> <smiles (First)>


> <Molecular weight>
268.2243347167969

> <name>
1-[3-(2,5-dioxo-2,5-dihydro-1H-pyrrol-1-yl)phenyl]-2,5-dihydro-1H-pyrrole-2,5-dione

> <Outcome>
1

> <Molecule (RDKit Mol) (InChI Code)>
InChI=1S/C14H8N2O4/c17-11-4-5-12(18)15(11)9-2-1-3-10(8-9)16-13(19)6-7-14(16)20/h1-8H

> <reference>
ECHA

> <molecule_form>
A

$$$$

  Mrv1812 01171911372D          

 34 33  0  0  0  0            999 V2000
    5.4237    4.0861    0.0000 C   0  0  0  0  0  0  0  0  0  0  0  0
    6.1382    3.6736    0.0000 C   0  0  0  0  0  0  0  0  0  0  0  0
    6.8527    4.0861    0.0000 C   0  0  0  0  0  0  0  0  0  0  0  0
    6.8527    4.9111    0.0000 O   0  0  0  0  0  0  0  0  0  0  0  0
    7.5671    3.6736    0.0000 O   0  0  0  0  0  0  0  0  0  0  0  0
    8.2816    4.0861    0.0000 C   0  0  0  0  0  0  0  0  0  0  0  0
    8.9961    3.6736    0.0000 C   0  0  0  0  0  0  0  0  0  0  0  0
    9.7105    4.0861    0.0000 C   0  0  0  0  0  0  0  0  0  0  0  0
    9.7105    4.9111    0.0000 C   0  0  0  0  0  0  0  0  0  0  0  0
   10.4250    3.6736    0.0000 C   0  0  0  0  0  0  0  0  0  0  0  0
   11.1395    4.0861    0.0000 C   0  0  0  0  0  0  0  0  0  0  0  0
   11.8540    3.6736    0.0000 O   0  0  0  0  0  0  0  0  0  0  0  0
   12.5684    4.0861    0.0000 C   0  0  0  0  0  0  0  0  0  0  0  0
   12.5684    4.9111    0.0000 O   0  0  0  0  0  0  0  0  0  0  0  0
   13.2829    3.6736    0.0000 C   0  0  0  0  0  0  0  0  0  0  0  0
   13.9974    4.0861    0.0000 C   0  0  0  0  0  0  0  0  0  0  0  0
    5.4237    4.9111    0.0000 H   0  0  0  0  0  0  0  0  0  0  0  0
    4.7092    3.6736    0.0000 H   0  0  0  0  0  0  0  0  0  0  0  0
    6.1382    2.8486    0.0000 H   0  0  0  0  0  0  0  0  0  0  0  0
    8.6519    4.8234    0.0000 H   0  0  0  0  0  0  0  0  0  0  0  0
    7.9113    4.8234    0.0000 H   0  0  0  0  0  0  0  0  0  0  0  0
    8.6258    2.9364    0.0000 H   0  0  0  0  0  0  0  0  0  0  0  0
    9.3663    2.9364    0.0000 H   0  0  0  0  0  0  0  0  0  0  0  0
    8.9961    4.4986    0.0000 H   0  0  0  0  0  0  0  0  0  0  0  0
   10.5074    4.6976    0.0000 H   0  0  0  0  0  0  0  0  0  0  0  0
   10.1230    5.6256    0.0000 H   0  0  0  0  0  0  0  0  0  0  0  0
    9.1272    5.4945    0.0000 H   0  0  0  0  0  0  0  0  0  0  0  0
   10.0548    2.9364    0.0000 H   0  0  0  0  0  0  0  0  0  0  0  0
   10.7953    2.9364    0.0000 H   0  0  0  0  0  0  0  0  0  0  0  0
   11.6363    4.7448    0.0000 H   0  0  0  0  0  0  0  0  0  0  0  0
   11.1395    3.2611    0.0000 H   0  0  0  0  0  0  0  0  0  0  0  0
   13.2829    2.8486    0.0000 H   0  0  0  0  0  0  0  0  0  0  0  0
   14.7118    3.6736    0.0000 H   0  0  0  0  0  0  0  0  0  0  0  0
   13.9974    4.9111    0.0000 H   0  0  0  0  0  0  0  0  0  0  0  0
  1  2  2  0  0  0  0
  2  3  1  0  0  0  0
  3  4  2  0  0  0  0
  3  5  1  0  0  0  0
  5  6  1  0  0  0  0
  6  7  1  0  0  0  0
  7  8  1  0  0  0  0
  8  9  1  0  0  0  0
  8 10  1  0  0  0  0
 10 11  1  0  0  0  0
 11 12  1  0  0  0  0
 12 13  1  0  0  0  0
 13 14  2  0  0  0  0
 13 15  1  0  0  0  0
 15 16  2  0  0  0  0
  1 17  1  0  0  0  0
  1 18  1  0  0  0  0
  2 19  1  0  0  0  0
  6 20  1  0  0  0  0
  6 21  1  0  0  0  0
  7 22  1  0  0  0  0
  7 23  1  0  0  0  0
  8 24  1  0  0  0  0
  9 25  1  0  0  0  0
  9 26  1  0  0  0  0
  9 27  1  0  0  0  0
 10 28  1  0  0  0  0
 10 29  1  0  0  0  0
 11 30  1  0  0  0  0
 11 31  1  0  0  0  0
 15 32  1  0  0  0  0
 16 33  1  0  0  0  0
 16 34  1  0  0  0  0
M  END
> <id>
1782

> <casrn>
64194-22-5

> <smiles (First)>


> <Molecular weight>
226.2689208984375

> <name>
3-methyl-5-(prop-2-enoyloxy)pentyl prop-2-enoate

> <Outcome>
1

> <Molecule (RDKit Mol) (InChI Code)>
InChI=1S/C12H18O4/c1-4-11(13)15-8-6-10(3)7-9-16-12(14)5-2/h4-5,10H,1-2,6-9H2,3H3

> <reference>
ECHA

> <molecule_form>
A

$$$$

  Mrv1812 01171911372D          

 13 12  0  0  0  0            999 V2000
    2.0639    0.7121    0.0000 C   0  0  0  0  0  0  0  0  0  0  0  0
    1.2389    0.7121    0.0000 C   0  0  0  0  0  0  0  0  0  0  0  0
    0.8264   -0.0023    0.0000 C   0  0  0  0  0  0  0  0  0  0  0  0
    0.0014   -0.0023    0.0000 C   0  0  0  0  0  0  0  0  0  0  0  0
   -0.4111   -0.7168    0.0000 C   0  0  0  0  0  0  0  0  0  0  0  0
   -0.8236   -1.4313    0.0000 N   0  0  0  0  0  0  0  0  0  0  0  0
    2.0639   -0.1129    0.0000 H   0  0  0  0  0  0  0  0  0  0  0  0
    2.8889    0.7121    0.0000 H   0  0  0  0  0  0  0  0  0  0  0  0
    2.0639    1.5371    0.0000 H   0  0  0  0  0  0  0  0  0  0  0  0
    1.1909    1.5357    0.0000 H   0  0  0  0  0  0  0  0  0  0  0  0
    0.5496    1.1655    0.0000 H   0  0  0  0  0  0  0  0  0  0  0  0
    1.2389   -0.7168    0.0000 H   0  0  0  0  0  0  0  0  0  0  0  0
   -0.4111    0.7121    0.0000 H   0  0  0  0  0  0  0  0  0  0  0  0
  1  2  1  0  0  0  0
  3  2  1  4  0  0  0
  3  4  2  0  0  0  0
  4  5  1  0  0  0  0
  5  6  3  0  0  0  0
  1  7  1  0  0  0  0
  1  8  1  0  0  0  0
  1  9  1  0  0  0  0
  2 10  1  0  0  0  0
  2 11  1  0  0  0  0
  3 12  1  0  0  0  0
  4 13  1  0  0  0  0
M  END
> <id>
3685

> <casrn>
25899-50-7

> <smiles (First)>


> <Molecular weight>
81.11578369140625

> <name>
pent-2-enenitrile

> <Outcome>
1

> <Molecule (RDKit Mol) (InChI Code)>
InChI=1S/C5H7N/c1-2-3-4-5-6/h3-4H,2H2,1H3

> <reference>
ECHA

> <molecule_form>
V

$$$$

  Mrv1812 01171911372D          

 17 17  0  0  0  0            999 V2000
    0.7145    2.0625    0.0000 N   0  0  0  0  0  0  0  0  0  0  0  0
    0.7145    1.2375    0.0000 C   0  0  0  0  0  0  0  0  0  0  0  0
    1.4289    0.8250    0.0000 C   0  0  0  0  0  0  0  0  0  0  0  0
    2.1434    1.2375    0.0000 Cl  0  0  0  0  0  0  0  0  0  0  0  0
    1.4289    0.0000    0.0000 C   0  0  0  0  0  0  0  0  0  0  0  0
    0.7145   -0.4125    0.0000 C   0  0  0  0  0  0  0  0  0  0  0  0
    0.7145   -1.2375    0.0000 C   0  0  0  0  0  0  0  0  0  0  0  0
    0.7145   -2.0625    0.0000 F   0  0  0  0  0  0  0  0  0  0  0  0
   -0.1105   -1.2375    0.0000 F   0  0  0  0  0  0  0  0  0  0  0  0
    1.5395   -1.2375    0.0000 F   0  0  0  0  0  0  0  0  0  0  0  0
    0.0000    0.0000    0.0000 C   0  0  0  0  0  0  0  0  0  0  0  0
    0.0000    0.8250    0.0000 C   0  0  0  0  0  0  0  0  0  0  0  0
   -0.7145    1.2375    0.0000 Cl  0  0  0  0  0  0  0  0  0  0  0  0
    1.4289    2.4750    0.0000 H   0  0  0  0  0  0  0  0  0  0  0  0
    0.0000    2.4750    0.0000 H   0  0  0  0  0  0  0  0  0  0  0  0
    2.1434   -0.4125    0.0000 H   0  0  0  0  0  0  0  0  0  0  0  0
   -0.7145   -0.4125    0.0000 H   0  0  0  0  0  0  0  0  0  0  0  0
  1  2  1  0  0  0  0
  2  3  4  0  0  0  0
  3  4  1  0  0  0  0
  3  5  4  0  0  0  0
  5  6  4  0  0  0  0
  6  7  1  0  0  0  0
  7  8  1  0  0  0  0
  7  9  1  0  0  0  0
  7 10  1  0  0  0  0
  6 11  4  0  0  0  0
 11 12  4  0  0  0  0
  2 12  4  0  0  0  0
 12 13  1  0  0  0  0
  1 14  1  0  0  0  0
  1 15  1  0  0  0  0
  5 16  1  0  0  0  0
 11 17  1  0  0  0  0
M  END
> <id>
1307

> <casrn>
24279-39-8

> <smiles (First)>


> <Molecular weight>
230.0145721435547

> <name>
2,6-dichloro-4-(trifluoromethyl)aniline

> <Outcome>
1

> <Molecule (RDKit Mol) (InChI Code)>
InChI=1S/C7H4Cl2F3N/c8-4-1-3(7(10,11)12)2-5(9)6(4)13/h1-2H,13H2

> <reference>
ECHA

> <molecule_form>
A

$$$$

  Mrv1812 01171911372D          

 14 14  0  0  0  0            999 V2000
    0.7145    2.0625    0.0000 C   0  0  0  0  0  0  0  0  0  0  0  0
    0.7145    1.2375    0.0000 C   0  0  0  0  0  0  0  0  0  0  0  0
    1.4289    0.8250    0.0000 C   0  0  0  0  0  0  0  0  0  0  0  0
    1.4289    0.0000    0.0000 C   0  0  0  0  0  0  0  0  0  0  0  0
    0.7145   -0.4125    0.0000 C   0  0  0  0  0  0  0  0  0  0  0  0
    0.0000    0.0000    0.0000 N   0  0  0  0  0  0  0  0  0  0  0  0
    0.0000    0.8250    0.0000 C   0  0  0  0  0  0  0  0  0  0  0  0
    1.5395    2.0625    0.0000 H   0  0  0  0  0  0  0  0  0  0  0  0
    0.7145    2.8875    0.0000 H   0  0  0  0  0  0  0  0  0  0  0  0
   -0.1105    2.0625    0.0000 H   0  0  0  0  0  0  0  0  0  0  0  0
    2.1434    1.2375    0.0000 H   0  0  0  0  0  0  0  0  0  0  0  0
    2.1434   -0.4125    0.0000 H   0  0  0  0  0  0  0  0  0  0  0  0
    0.7145   -1.2375    0.0000 H   0  0  0  0  0  0  0  0  0  0  0  0
   -0.7145    1.2375    0.0000 H   0  0  0  0  0  0  0  0  0  0  0  0
  1  2  1  0  0  0  0
  2  3  4  0  0  0  0
  3  4  4  0  0  0  0
  4  5  4  0  0  0  0
  5  6  4  0  0  0  0
  6  7  4  0  0  0  0
  2  7  4  0  0  0  0
  1  8  1  0  0  0  0
  1  9  1  0  0  0  0
  1 10  1  0  0  0  0
  3 11  1  0  0  0  0
  4 12  1  0  0  0  0
  5 13  1  0  0  0  0
  7 14  1  0  0  0  0
M  END
> <id>
1805

> <casrn>
108-99-6

> <smiles (First)>


> <Molecular weight>
93.12648010253906

> <name>
3-methylpyridine

> <Outcome>
1

> <Molecule (RDKit Mol) (InChI Code)>
InChI=1S/C6H7N/c1-6-3-2-4-7-5-6/h2-5H,1H3

> <reference>
ECHA

> <molecule_form>
V

$$$$

  Mrv1812 01171911372D          

 17 16  0  0  0  0            999 V2000
    1.7620    1.6005    0.0000 C   0  0  0  0  0  0  0  0  0  0  0  0
    1.3495    0.8861    0.0000 C   0  0  0  0  0  0  0  0  0  0  0  0
    0.6350    1.2986    0.0000 C   0  0  0  0  0  0  0  0  0  0  0  0
    2.0640    0.4736    0.0000 C   0  0  0  0  0  0  0  0  0  0  0  0
    0.9370    0.1716    0.0000 C   0  0  0  0  0  0  0  0  0  0  0  0
    1.3495   -0.5429    0.0000 O   0  0  0  0  0  0  0  0  0  0  0  0
    0.1120    0.1716    0.0000 O   0  0  0  0  0  0  0  0  0  0  0  0
    2.4765    1.1880    0.0000 H   0  0  0  0  0  0  0  0  0  0  0  0
    2.1745    2.3150    0.0000 H   0  0  0  0  0  0  0  0  0  0  0  0
    1.0475    2.0130    0.0000 H   0  0  0  0  0  0  0  0  0  0  0  0
    0.1328    1.9531    0.0000 H   0  0  0  0  0  0  0  0  0  0  0  0
   -0.1618    1.0850    0.0000 H   0  0  0  0  0  0  0  0  0  0  0  0
    0.5274    0.4806    0.0000 H   0  0  0  0  0  0  0  0  0  0  0  0
    1.4095   -0.0287    0.0000 H   0  0  0  0  0  0  0  0  0  0  0  0
    2.2775   -0.3233    0.0000 H   0  0  0  0  0  0  0  0  0  0  0  0
    2.8819    0.3659    0.0000 H   0  0  0  0  0  0  0  0  0  0  0  0
   -0.3805   -0.4903    0.0000 H   0  0  0  0  0  0  0  0  0  0  0  0
  1  2  1  0  0  0  0
  2  3  1  0  0  0  0
  2  4  1  0  0  0  0
  2  5  1  0  0  0  0
  5  6  2  0  0  0  0
  5  7  1  0  0  0  0
  1  8  1  0  0  0  0
  1  9  1  0  0  0  0
  1 10  1  0  0  0  0
  3 11  1  0  0  0  0
  3 12  1  0  0  0  0
  3 13  1  0  0  0  0
  4 14  1  0  0  0  0
  4 15  1  0  0  0  0
  4 16  1  0  0  0  0
  7 17  1  0  0  0  0
M  END
> <id>
3740; 3741

> <casrn>
75-98-9

> <smiles (First)>


> <Molecular weight>
102.13169860839844

> <name>
pivalic acid

> <Outcome>
0

> <Molecule (RDKit Mol) (InChI Code)>
InChI=1S/C5H10O2/c1-5(2,3)4(6)7/h1-3H3,(H,6,7)

> <reference>
ECHA

> <molecule_form>
A

$$$$

  Mrv1812 01171911372D          

 18 18  0  0  0  0            999 V2000
    0.0017    4.1260    0.0000 F   0  0  0  0  0  0  0  0  0  0  0  0
    0.0017    3.3010    0.0000 C   0  0  0  0  0  0  0  0  0  0  0  0
   -0.8233    3.3010    0.0000 F   0  0  0  0  0  0  0  0  0  0  0  0
    0.8267    3.3010    0.0000 F   0  0  0  0  0  0  0  0  0  0  0  0
    0.0017    2.4760    0.0000 C   0  0  0  0  0  0  0  0  0  0  0  0
    0.7161    2.0635    0.0000 O   0  0  0  0  0  0  0  0  0  0  0  0
    0.7161    1.2385    0.0000 C   0  0  0  0  0  0  0  0  0  0  0  0
    1.4306    0.8260    0.0000 C   0  0  0  0  0  0  0  0  0  0  0  0
    1.4306    0.0010    0.0000 C   0  0  0  0  0  0  0  0  0  0  0  0
    0.7161   -0.4115    0.0000 C   0  0  0  0  0  0  0  0  0  0  0  0
    0.0017    0.0010    0.0000 N   0  0  0  0  0  0  0  0  0  0  0  0
    0.0017    0.8260    0.0000 C   0  0  0  0  0  0  0  0  0  0  0  0
   -0.7128    1.2385    0.0000 Cl  0  0  0  0  0  0  0  0  0  0  0  0
   -0.8219    2.4280    0.0000 H   0  0  0  0  0  0  0  0  0  0  0  0
   -0.4517    1.7867    0.0000 H   0  0  0  0  0  0  0  0  0  0  0  0
    2.1451    1.2385    0.0000 H   0  0  0  0  0  0  0  0  0  0  0  0
    2.1451   -0.4115    0.0000 H   0  0  0  0  0  0  0  0  0  0  0  0
    0.7161   -1.2365    0.0000 H   0  0  0  0  0  0  0  0  0  0  0  0
  1  2  1  0  0  0  0
  2  3  1  0  0  0  0
  2  4  1  0  0  0  0
  2  5  1  0  0  0  0
  5  6  1  0  0  0  0
  6  7  1  0  0  0  0
  7  8  4  0  0  0  0
  8  9  4  0  0  0  0
  9 10  4  0  0  0  0
 10 11  4  0  0  0  0
 11 12  4  0  0  0  0
  7 12  4  0  0  0  0
 12 13  1  0  0  0  0
  5 14  1  0  0  0  0
  5 15  1  0  0  0  0
  8 16  1  0  0  0  0
  9 17  1  0  0  0  0
 10 18  1  0  0  0  0
M  END
> <id>
822

> <casrn>
256473-04-8

> <smiles (First)>


> <Molecular weight>
211.56890869140625

> <name>
-

> <Outcome>
0

> <Molecule (RDKit Mol) (InChI Code)>
InChI=1S/C7H5ClF3NO/c8-6-5(2-1-3-12-6)13-4-7(9,10)11/h1-3H,4H2

> <reference>
ECHA

> <molecule_form>
A

$$$$

  Mrv1812 01171911372D          

 18 18  0  0  0  0            999 V2000
    0.7145    2.0625    0.0000 C   0  0  0  0  0  0  0  0  0  0  0  0
    0.7145    1.2375    0.0000 C   0  0  0  0  0  0  0  0  0  0  0  0
    1.4289    0.8250    0.0000 C   0  0  0  0  0  0  0  0  0  0  0  0
    1.4289    0.0000    0.0000 C   0  0  0  0  0  0  0  0  0  0  0  0
    0.7145   -0.4125    0.0000 C   0  0  0  0  0  0  0  0  0  0  0  0
   -0.0000    0.0000    0.0000 C   0  0  0  0  0  0  0  0  0  0  0  0
   -0.7145   -0.4125    0.0000 C   0  0  0  0  0  0  0  0  0  0  0  0
   -0.0000    0.8250    0.0000 C   0  0  0  0  0  0  0  0  0  0  0  0
    1.5395    2.0625    0.0000 H   0  0  0  0  0  0  0  0  0  0  0  0
    0.7145    2.8875    0.0000 H   0  0  0  0  0  0  0  0  0  0  0  0
   -0.1105    2.0625    0.0000 H   0  0  0  0  0  0  0  0  0  0  0  0
    2.1434    1.2375    0.0000 H   0  0  0  0  0  0  0  0  0  0  0  0
    2.1434   -0.4125    0.0000 H   0  0  0  0  0  0  0  0  0  0  0  0
    0.7145   -1.2375    0.0000 H   0  0  0  0  0  0  0  0  0  0  0  0
   -1.1270    0.3020    0.0000 H   0  0  0  0  0  0  0  0  0  0  0  0
   -1.4289   -0.8250    0.0000 H   0  0  0  0  0  0  0  0  0  0  0  0
   -0.3020   -1.1270    0.0000 H   0  0  0  0  0  0  0  0  0  0  0  0
   -0.7145    1.2375    0.0000 H   0  0  0  0  0  0  0  0  0  0  0  0
  1  2  1  0  0  0  0
  2  3  4  0  0  0  0
  3  4  4  0  0  0  0
  4  5  4  0  0  0  0
  5  6  4  0  0  0  0
  6  7  1  0  0  0  0
  6  8  4  0  0  0  0
  2  8  4  0  0  0  0
  1  9  1  0  0  0  0
  1 10  1  0  0  0  0
  1 11  1  0  0  0  0
  3 12  1  0  0  0  0
  4 13  1  0  0  0  0
  5 14  1  0  0  0  0
  7 15  1  0  0  0  0
  7 16  1  0  0  0  0
  7 17  1  0  0  0  0
  8 18  1  0  0  0  0
M  END
> <id>
1006; 1003; 1009; 1004; 1001; 1002; 1005; 4619; 4618

> <casrn>
108-38-3

> <smiles (First)>


> <Molecular weight>
106.16500091552733

> <name>
1,3-xylene

> <Outcome>
0

> <Molecule (RDKit Mol) (InChI Code)>
InChI=1S/C8H10/c1-7-4-3-5-8(2)6-7/h3-6H,1-2H3

> <reference>
ECHA

> <molecule_form>
V

$$$$

  Mrv1812 01171911372D          

 66 68  0  0  0  0            999 V2000
    1.9504   -0.3396    0.0000 C   0  0  0  0  0  0  0  0  0  0  0  0
    2.3385    0.3884    0.0000 C   0  0  0  0  0  0  0  0  0  0  0  0
    2.9881   -0.1202    0.0000 C   0  0  0  0  0  0  0  0  0  0  0  0
    1.5542    0.6441    0.0000 C   0  0  0  0  0  0  0  0  0  0  0  0
    1.3835    1.4513    0.0000 C   0  0  0  0  0  0  0  0  0  0  0  0
    1.9971    2.0027    0.0000 C   0  0  0  0  0  0  0  0  0  0  0  0
    2.7815    1.7469    0.0000 C   0  0  0  0  0  0  0  0  0  0  0  0
    2.8972    2.5638    0.0000 C   0  0  0  0  0  0  0  0  0  0  0  0
    3.6060    1.7749    0.0000 C   0  0  0  0  0  0  0  0  0  0  0  0
    2.9522    0.9398    0.0000 N   0  0  0  0  0  0  0  0  0  0  0  0
    0.9460    1.0033    0.0000 O   0  0  0  0  0  0  0  0  0  0  0  0
    0.0486    1.4527    0.0000 C   0  0  0  0  0  0  0  0  0  0  0  0
    0.6611    0.9000    0.0000 C   0  0  0  0  0  0  0  0  0  0  0  0
    0.4887    0.0932    0.0000 C   0  0  0  0  0  0  0  0  0  0  0  0
   -0.2961   -0.1609    0.0000 C   0  0  0  0  0  0  0  0  0  0  0  0
   -0.9087    0.3918    0.0000 C   0  0  0  0  0  0  0  0  0  0  0  0
   -1.6936    0.1376    0.0000 C   0  0  0  0  0  0  0  0  0  0  0  0
   -2.3061    0.6903    0.0000 C   0  0  0  0  0  0  0  0  0  0  0  0
   -2.1337    1.4971    0.0000 C   0  0  0  0  0  0  0  0  0  0  0  0
   -1.3488    1.7512    0.0000 C   0  0  0  0  0  0  0  0  0  0  0  0
   -1.1765    2.5580    0.0000 C   0  0  0  0  0  0  0  0  0  0  0  0
   -0.3916    2.8121    0.0000 C   0  0  0  0  0  0  0  0  0  0  0  0
   -0.0096    2.2232    0.0000 C   0  0  0  0  0  0  0  0  0  0  0  0
    0.3043    2.2370    0.0000 N   0  0  0  0  0  0  0  0  0  0  0  0
    1.1293    2.2362    0.0000 C   0  0  0  0  0  0  0  0  0  0  0  0
    1.6150    2.9031    0.0000 O   0  0  0  0  0  0  0  0  0  0  0  0
    1.2224    0.0484    0.0000 H   0  0  0  0  0  0  0  0  0  0  0  0
    1.5624   -1.0677    0.0000 H   0  0  0  0  0  0  0  0  0  0  0  0
    2.6785   -0.7277    0.0000 H   0  0  0  0  0  0  0  0  0  0  0  0
    3.4929   -0.7727    0.0000 H   0  0  0  0  0  0  0  0  0  0  0  0
    3.7936    0.0579    0.0000 H   0  0  0  0  0  0  0  0  0  0  0  0
    3.1708    0.6843    0.0000 H   0  0  0  0  0  0  0  0  0  0  0  0
    2.1678    1.1955    0.0000 H   0  0  0  0  0  0  0  0  0  0  0  0
    1.8554   -0.1239    0.0000 H   0  0  0  0  0  0  0  0  0  0  0  0
    2.4924    2.6625    0.0000 H   0  0  0  0  0  0  0  0  0  0  0  0
    1.9428    2.8259    0.0000 H   0  0  0  0  0  0  0  0  0  0  0  0
    3.5970    2.1270    0.0000 H   0  0  0  0  0  0  0  0  0  0  0  0
    3.5802    3.0265    0.0000 H   0  0  0  0  0  0  0  0  0  0  0  0
    2.7510    3.3757    0.0000 H   0  0  0  0  0  0  0  0  0  0  0  0
    3.3147    1.0030    0.0000 H   0  0  0  0  0  0  0  0  0  0  0  0
    4.2064    1.2091    0.0000 H   0  0  0  0  0  0  0  0  0  0  0  0
    4.3592    2.1115    0.0000 H   0  0  0  0  0  0  0  0  0  0  0  0
    2.8982    0.1165    0.0000 H   0  0  0  0  0  0  0  0  0  0  0  0
   -0.1238    0.6459    0.0000 H   0  0  0  0  0  0  0  0  0  0  0  0
    1.0857    0.1927    0.0000 H   0  0  0  0  0  0  0  0  0  0  0  0
    0.2174   -0.6859    0.0000 H   0  0  0  0  0  0  0  0  0  0  0  0
    0.9459   -0.5935    0.0000 H   0  0  0  0  0  0  0  0  0  0  0  0
   -1.0861   -0.3987    0.0000 H   0  0  0  0  0  0  0  0  0  0  0  0
   -0.5019   -0.9598    0.0000 H   0  0  0  0  0  0  0  0  0  0  0  0
   -0.8790    1.2162    0.0000 H   0  0  0  0  0  0  0  0  0  0  0  0
   -1.4159    1.0424    0.0000 H   0  0  0  0  0  0  0  0  0  0  0  0
   -2.4208   -0.2520    0.0000 H   0  0  0  0  0  0  0  0  0  0  0  0
   -1.9984   -0.6290    0.0000 H   0  0  0  0  0  0  0  0  0  0  0  0
   -3.0200    1.1037    0.0000 H   0  0  0  0  0  0  0  0  0  0  0  0
   -3.1157    0.5319    0.0000 H   0  0  0  0  0  0  0  0  0  0  0  0
   -2.1376    2.3221    0.0000 H   0  0  0  0  0  0  0  0  0  0  0  0
   -2.6815    2.1140    0.0000 H   0  0  0  0  0  0  0  0  0  0  0  0
   -0.5505    1.9594    0.0000 H   0  0  0  0  0  0  0  0  0  0  0  0
   -1.9613    2.3039    0.0000 H   0  0  0  0  0  0  0  0  0  0  0  0
   -1.1468    3.3825    0.0000 H   0  0  0  0  0  0  0  0  0  0  0  0
   -1.6837    3.2087    0.0000 H   0  0  0  0  0  0  0  0  0  0  0  0
    0.3126    3.2420    0.0000 H   0  0  0  0  0  0  0  0  0  0  0  0
   -0.1361    3.5966    0.0000 H   0  0  0  0  0  0  0  0  0  0  0  0
    0.5970    2.7824    0.0000 H   0  0  0  0  0  0  0  0  0  0  0  0
    0.0936    3.0417    0.0000 H   0  0  0  0  0  0  0  0  0  0  0  0
    0.7886    1.5691    0.0000 H   0  0  0  0  0  0  0  0  0  0  0  0
  1  2  1  0  0  0  0
  2  3  1  0  0  0  0
  2  4  1  0  0  0  0
  4  5  1  0  0  0  0
  5  6  1  0  0  0  0
  6  7  1  0  0  0  0
  7  8  1  0  0  0  0
  7  9  1  0  0  0  0
  7 10  1  0  0  0  0
  2 10  1  0  0  0  0
  5 11  1  0  0  0  0
 11 12  1  0  0  0  0
 12 13  1  0  0  0  0
 13 14  1  0  0  0  0
 14 15  1  0  0  0  0
 15 16  1  0  0  0  0
 16 17  1  0  0  0  0
 17 18  1  0  0  0  0
 18 19  1  0  0  0  0
 19 20  1  0  0  0  0
 20 21  1  0  0  0  0
 21 22  1  0  0  0  0
 22 23  1  0  0  0  0
 12 23  1  0  0  0  0
 12 24  1  0  0  0  0
 24 25  1  0  0  0  0
  5 25  1  0  0  0  0
 25 26  2  0  0  0  0
  1 27  1  0  0  0  0
  1 28  1  0  0  0  0
  1 29  1  0  0  0  0
  3 30  1  0  0  0  0
  3 31  1  0  0  0  0
  3 32  1  0  0  0  0
  4 33  1  0  0  0  0
  4 34  1  0  0  0  0
  6 35  1  0  0  0  0
  6 36  1  0  0  0  0
  8 37  1  0  0  0  0
  8 38  1  0  0  0  0
  8 39  1  0  0  0  0
  9 40  1  0  0  0  0
  9 41  1  0  0  0  0
  9 42  1  0  0  0  0
 10 43  1  0  0  0  0
 13 44  1  0  0  0  0
 13 45  1  0  0  0  0
 14 46  1  0  0  0  0
 14 47  1  0  0  0  0
 15 48  1  0  0  0  0
 15 49  1  0  0  0  0
 16 50  1  0  0  0  0
 16 51  1  0  0  0  0
 17 52  1  0  0  0  0
 17 53  1  0  0  0  0
 18 54  1  0  0  0  0
 18 55  1  0  0  0  0
 19 56  1  0  0  0  0
 19 57  1  0  0  0  0
 20 58  1  0  0  0  0
 20 59  1  0  0  0  0
 21 60  1  0  0  0  0
 21 61  1  0  0  0  0
 22 62  1  0  0  0  0
 22 63  1  0  0  0  0
 23 64  1  0  0  0  0
 23 65  1  0  0  0  0
 24 66  1  0  0  0  0
M  END
> <id>
1251

> <casrn>
64338-16-5

> <smiles (First)>


> <Molecular weight>
364.5652160644531

> <name>
2,2,4,4-tetramethyl-7-oxa-3,20-diazadispiro[5.1.11????.2????]henicosan-21-one

> <Outcome>
1

> <Molecule (RDKit Mol) (InChI Code)>
InChI=1S/C22H40N2O2/c1-19(2)16-21(17-20(3,4)24-19)18(25)23-22(26-21)14-12-10-8-6-5-7-9-11-13-15-22/h24H,5-17H2,1-4H3,(H,23,25)

> <reference>
ECHA

> <molecule_form>
A

$$$$

  Mrv1812 01171911372D          

  4  3  0  0  0  0            999 V2000
    1.2375    0.7145    0.0000 O   0  0  0  0  0  0  0  0  0  0  0  0
    0.8250   -0.0000    0.0000 C   0  0  0  0  0  0  0  0  0  0  0  0
    1.2375   -0.7145    0.0000 F   0  0  0  0  0  0  0  0  0  0  0  0
    0.0000   -0.0000    0.0000 F   0  0  0  0  0  0  0  0  0  0  0  0
  1  2  2  0  0  0  0
  2  3  1  0  0  0  0
  2  4  1  0  0  0  0
M  END
> <id>
2779

> <casrn>
353-50-4

> <smiles (First)>


> <Molecular weight>
66.00690460205078

> <name>
carbonyl difluoride

> <Outcome>
1

> <Molecule (RDKit Mol) (InChI Code)>
InChI=1S/CF2O/c2-1(3)4

> <reference>
ECHA

> <molecule_form>
G

$$$$

  Mrv1812 01171911372D          

 14 14  0  0  0  0            999 V2000
    0.7145    2.0625    0.0000 F   0  0  0  0  0  0  0  0  0  0  0  0
    0.7145    1.2375    0.0000 C   0  0  0  0  0  0  0  0  0  0  0  0
    1.4289    0.8250    0.0000 C   0  0  0  0  0  0  0  0  0  0  0  0
    1.4289    0.0000    0.0000 C   0  0  0  0  0  0  0  0  0  0  0  0
    0.7145   -0.4125    0.0000 C   0  0  0  0  0  0  0  0  0  0  0  0
   -0.0000    0.0000    0.0000 C   0  0  0  0  0  0  0  0  0  0  0  0
   -0.7145   -0.4125    0.0000 C   0  0  0  0  0  0  0  0  0  0  0  0
   -1.4289   -0.8250    0.0000 F   0  0  0  0  0  0  0  0  0  0  0  0
   -1.1270    0.3020    0.0000 F   0  0  0  0  0  0  0  0  0  0  0  0
   -0.3020   -1.1270    0.0000 F   0  0  0  0  0  0  0  0  0  0  0  0
   -0.0000    0.8250    0.0000 N   0  0  0  0  0  0  0  0  0  0  0  0
    2.1434    1.2375    0.0000 H   0  0  0  0  0  0  0  0  0  0  0  0
    2.1434   -0.4125    0.0000 H   0  0  0  0  0  0  0  0  0  0  0  0
    0.7145   -1.2375    0.0000 H   0  0  0  0  0  0  0  0  0  0  0  0
  1  2  1  0  0  0  0
  2  3  4  0  0  0  0
  3  4  4  0  0  0  0
  4  5  4  0  0  0  0
  5  6  4  0  0  0  0
  6  7  1  0  0  0  0
  7  8  1  0  0  0  0
  7  9  1  0  0  0  0
  7 10  1  0  0  0  0
  6 11  4  0  0  0  0
  2 11  4  0  0  0  0
  3 12  1  0  0  0  0
  4 13  1  0  0  0  0
  5 14  1  0  0  0  0
M  END
> <id>
419

> <casrn>
94239-04-0

> <smiles (First)>


> <Molecular weight>
165.0883331298828

> <name>
-

> <Outcome>
1

> <Molecule (RDKit Mol) (InChI Code)>
InChI=1S/C6H3F4N/c7-5-3-1-2-4(11-5)6(8,9)10/h1-3H

> <reference>
ECHA

> <molecule_form>
V

$$$$

  Mrv1812 01171911372D          

 36 35  0  0  0  0            999 V2000
   -0.3820    6.3803    0.0000 C   0  0  0  0  0  0  0  0  0  0  0  0
   -0.3820    5.5553    0.0000 C   0  0  0  0  0  0  0  0  0  0  0  0
    0.3324    5.1428    0.0000 C   0  0  0  0  0  0  0  0  0  0  0  0
    0.3324    4.3178    0.0000 C   0  0  0  0  0  0  0  0  0  0  0  0
    1.0469    3.9053    0.0000 O   0  0  0  0  0  0  0  0  0  0  0  0
    1.0469    3.0803    0.0000 C   0  0  0  0  0  0  0  0  0  0  0  0
    0.3324    2.6678    0.0000 O   0  0  0  0  0  0  0  0  0  0  0  0
    1.7614    2.6678    0.0000 C   0  0  0  0  0  0  0  0  0  0  0  0
    1.7614    1.8428    0.0000 C   0  0  0  0  0  0  0  0  0  0  0  0
    2.4758    1.4303    0.0000 C   0  0  0  0  0  0  0  0  0  0  0  0
    2.4758    0.6053    0.0000 O   0  0  0  0  0  0  0  0  0  0  0  0
    3.1903    1.8428    0.0000 O   0  0  0  0  0  0  0  0  0  0  0  0
    3.9048    1.4303    0.0000 C   0  0  0  0  0  0  0  0  0  0  0  0
    4.6193    1.8428    0.0000 C   0  0  0  0  0  0  0  0  0  0  0  0
    5.3337    1.4303    0.0000 C   0  0  0  0  0  0  0  0  0  0  0  0
    6.0482    1.8428    0.0000 C   0  0  0  0  0  0  0  0  0  0  0  0
    0.4430    6.3803    0.0000 H   0  0  0  0  0  0  0  0  0  0  0  0
   -0.3820    7.2053    0.0000 H   0  0  0  0  0  0  0  0  0  0  0  0
   -1.2070    6.3803    0.0000 H   0  0  0  0  0  0  0  0  0  0  0  0
   -1.2056    5.5074    0.0000 H   0  0  0  0  0  0  0  0  0  0  0  0
   -0.8354    4.8661    0.0000 H   0  0  0  0  0  0  0  0  0  0  0  0
    1.1560    5.1908    0.0000 H   0  0  0  0  0  0  0  0  0  0  0  0
    0.7858    5.8321    0.0000 H   0  0  0  0  0  0  0  0  0  0  0  0
   -0.4912    4.2699    0.0000 H   0  0  0  0  0  0  0  0  0  0  0  0
   -0.1209    3.6286    0.0000 H   0  0  0  0  0  0  0  0  0  0  0  0
    2.4758    3.0803    0.0000 H   0  0  0  0  0  0  0  0  0  0  0  0
    1.0469    1.4303    0.0000 H   0  0  0  0  0  0  0  0  0  0  0  0
    3.5345    0.6931    0.0000 H   0  0  0  0  0  0  0  0  0  0  0  0
    4.2750    0.6931    0.0000 H   0  0  0  0  0  0  0  0  0  0  0  0
    4.9895    2.5801    0.0000 H   0  0  0  0  0  0  0  0  0  0  0  0
    4.2490    2.5801    0.0000 H   0  0  0  0  0  0  0  0  0  0  0  0
    4.9635    0.6931    0.0000 H   0  0  0  0  0  0  0  0  0  0  0  0
    5.7040    0.6931    0.0000 H   0  0  0  0  0  0  0  0  0  0  0  0
    6.4607    1.1284    0.0000 H   0  0  0  0  0  0  0  0  0  0  0  0
    6.7627    2.2553    0.0000 H   0  0  0  0  0  0  0  0  0  0  0  0
    5.6357    2.5573    0.0000 H   0  0  0  0  0  0  0  0  0  0  0  0
  1  2  1  0  0  0  0
  2  3  1  0  0  0  0
  3  4  1  0  0  0  0
  4  5  1  0  0  0  0
  5  6  1  0  0  0  0
  6  7  2  0  0  0  0
  8  6  1  4  0  0  0
  8  9  2  0  0  0  0
  9 10  1  0  0  0  0
 10 11  2  0  0  0  0
 10 12  1  0  0  0  0
 12 13  1  0  0  0  0
 13 14  1  0  0  0  0
 14 15  1  0  0  0  0
 15 16  1  0  0  0  0
  1 17  1  0  0  0  0
  1 18  1  0  0  0  0
  1 19  1  0  0  0  0
  2 20  1  0  0  0  0
  2 21  1  0  0  0  0
  3 22  1  0  0  0  0
  3 23  1  0  0  0  0
  4 24  1  0  0  0  0
  4 25  1  0  0  0  0
  8 26  1  0  0  0  0
  9 27  1  0  0  0  0
 13 28  1  0  0  0  0
 13 29  1  0  0  0  0
 14 30  1  0  0  0  0
 14 31  1  0  0  0  0
 15 32  1  0  0  0  0
 15 33  1  0  0  0  0
 16 34  1  0  0  0  0
 16 35  1  0  0  0  0
 16 36  1  0  0  0  0
M  END
> <id>
1056

> <casrn>
105-76-0

> <smiles (First)>


> <Molecular weight>
228.28480529785156

> <name>
1,4-dibutyl (2Z)-but-2-enedioate

> <Outcome>
0

> <Molecule (RDKit Mol) (InChI Code)>
InChI=1S/C12H20O4/c1-3-5-9-15-11(13)7-8-12(14)16-10-6-4-2/h7-8H,3-6,9-10H2,1-2H3

> <reference>
ECHA

> <molecule_form>
A

$$$$

  Mrv1812 01171911372D          

 15 15  0  0  0  0            999 V2000
    0.7145    2.0625    0.0000 N   0  0  0  0  0  0  0  0  0  0  0  0
    0.7145    1.2375    0.0000 C   0  0  0  0  0  0  0  0  0  0  0  0
    1.4289    0.8250    0.0000 N   0  0  0  0  0  0  0  0  0  0  0  0
    1.4289    0.0000    0.0000 C   0  0  0  0  0  0  0  0  0  0  0  0
    2.1434   -0.4125    0.0000 N   0  0  0  0  0  0  0  0  0  0  0  0
    0.7145   -0.4125    0.0000 N   0  0  0  0  0  0  0  0  0  0  0  0
   -0.0000    0.0000    0.0000 C   0  0  0  0  0  0  0  0  0  0  0  0
   -0.7145   -0.4125    0.0000 N   0  0  0  0  0  0  0  0  0  0  0  0
   -0.0000    0.8250    0.0000 N   0  0  0  0  0  0  0  0  0  0  0  0
    1.4289    2.4750    0.0000 H   0  0  0  0  0  0  0  0  0  0  0  0
   -0.0000    2.4750    0.0000 H   0  0  0  0  0  0  0  0  0  0  0  0
    2.1434   -1.2375    0.0000 H   0  0  0  0  0  0  0  0  0  0  0  0
    2.8579    0.0000    0.0000 H   0  0  0  0  0  0  0  0  0  0  0  0
   -1.4289    0.0000    0.0000 H   0  0  0  0  0  0  0  0  0  0  0  0
   -0.7145   -1.2375    0.0000 H   0  0  0  0  0  0  0  0  0  0  0  0
  1  2  1  0  0  0  0
  2  3  4  0  0  0  0
  3  4  4  0  0  0  0
  4  5  1  0  0  0  0
  4  6  4  0  0  0  0
  6  7  4  0  0  0  0
  7  8  1  0  0  0  0
  7  9  4  0  0  0  0
  2  9  4  0  0  0  0
  1 10  1  0  0  0  0
  1 11  1  0  0  0  0
  5 12  1  0  0  0  0
  5 13  1  0  0  0  0
  8 14  1  0  0  0  0
  8 15  1  0  0  0  0
M  END
> <id>
957

> <casrn>
108-78-1

> <smiles (First)>


> <Molecular weight>
126.11994171142578

> <name>
1,3,5-triazine-2,4,6-triamine

> <Outcome>
0

> <Molecule (RDKit Mol) (InChI Code)>
InChI=1S/C3H6N6/c4-1-7-2(5)9-3(6)8-1/h(H6,4,5,6,7,8,9)

> <reference>
ECHA

> <molecule_form>
A

$$$$

  Mrv1812 01171911372D          

 50 51  0  0  0  0            999 V2000
   -1.4261    4.1152    0.0000 C   0  0  0  0  0  0  0  0  0  0  0  0
   -1.4261    3.2902    0.0000 C   0  0  0  0  0  0  0  0  0  0  0  0
   -0.7116    2.8777    0.0000 C   0  0  0  0  0  0  0  0  0  0  0  0
   -0.7116    2.0527    0.0000 O   0  0  0  0  0  0  0  0  0  0  0  0
    0.0029    1.6402    0.0000 C   0  0  0  0  0  0  0  0  0  0  0  0
    0.7173    2.0527    0.0000 O   0  0  0  0  0  0  0  0  0  0  0  0
    0.0029    0.8152    0.0000 C   0  0  0  0  0  0  0  0  0  0  0  0
   -0.8221    0.8152    0.0000 C   0  0  0  0  0  0  0  0  0  0  0  0
    0.8279    0.8152    0.0000 C   0  0  0  0  0  0  0  0  0  0  0  0
    0.0029   -0.0098    0.0000 O   0  0  0  0  0  0  0  0  0  0  0  0
    0.7173   -0.4223    0.0000 C   0  0  0  0  0  0  0  0  0  0  0  0
    1.4318   -0.0098    0.0000 O   0  0  0  0  0  0  0  0  0  0  0  0
    0.7173   -1.2473    0.0000 C   0  0  0  0  0  0  0  0  0  0  0  0
    1.4318   -1.6598    0.0000 C   0  0  0  0  0  0  0  0  0  0  0  0
    1.4318   -2.4848    0.0000 C   0  0  0  0  0  0  0  0  0  0  0  0
    2.1463   -2.8973    0.0000 N   0  0  0  0  0  0  0  0  0  0  0  0
    2.8608   -2.4848    0.0000 C   0  0  0  0  0  0  0  0  0  0  0  0
    2.8608   -1.6598    0.0000 O   0  0  0  0  0  0  0  0  0  0  0  0
    3.5752   -2.8973    0.0000 C   0  0  0  0  0  0  0  0  0  0  0  0
    3.5752   -3.7223    0.0000 C   0  0  0  0  0  0  0  0  0  0  0  0
    4.2897   -4.1348    0.0000 C   0  0  0  0  0  0  0  0  0  0  0  0
    5.0042   -4.5473    0.0000 F   0  0  0  0  0  0  0  0  0  0  0  0
    3.8772   -4.8492    0.0000 F   0  0  0  0  0  0  0  0  0  0  0  0
    4.7022   -3.4203    0.0000 F   0  0  0  0  0  0  0  0  0  0  0  0
    2.8608   -4.1348    0.0000 N   0  0  0  0  0  0  0  0  0  0  0  0
    2.8608   -4.9598    0.0000 C   0  0  0  0  0  0  0  0  0  0  0  0
    2.1463   -3.7223    0.0000 C   0  0  0  0  0  0  0  0  0  0  0  0
    1.4318   -4.1348    0.0000 O   0  0  0  0  0  0  0  0  0  0  0  0
    0.7173   -2.8973    0.0000 C   0  0  0  0  0  0  0  0  0  0  0  0
    0.0029   -2.4848    0.0000 C   0  0  0  0  0  0  0  0  0  0  0  0
    0.0029   -1.6598    0.0000 C   0  0  0  0  0  0  0  0  0  0  0  0
   -0.7116   -1.2473    0.0000 Cl  0  0  0  0  0  0  0  0  0  0  0  0
   -0.7116    4.5277    0.0000 H   0  0  0  0  0  0  0  0  0  0  0  0
   -2.1405    4.5277    0.0000 H   0  0  0  0  0  0  0  0  0  0  0  0
   -2.1405    2.8777    0.0000 H   0  0  0  0  0  0  0  0  0  0  0  0
    0.1120    2.9257    0.0000 H   0  0  0  0  0  0  0  0  0  0  0  0
   -0.2583    3.5670    0.0000 H   0  0  0  0  0  0  0  0  0  0  0  0
   -0.8221    1.6402    0.0000 H   0  0  0  0  0  0  0  0  0  0  0  0
   -1.6471    0.8152    0.0000 H   0  0  0  0  0  0  0  0  0  0  0  0
   -0.8221   -0.0098    0.0000 H   0  0  0  0  0  0  0  0  0  0  0  0
    0.8279   -0.0098    0.0000 H   0  0  0  0  0  0  0  0  0  0  0  0
    1.6529    0.8152    0.0000 H   0  0  0  0  0  0  0  0  0  0  0  0
    0.8279    1.6402    0.0000 H   0  0  0  0  0  0  0  0  0  0  0  0
    2.1463   -1.2473    0.0000 H   0  0  0  0  0  0  0  0  0  0  0  0
    4.2897   -2.4848    0.0000 H   0  0  0  0  0  0  0  0  0  0  0  0
    2.0358   -4.9598    0.0000 H   0  0  0  0  0  0  0  0  0  0  0  0
    2.8608   -5.7848    0.0000 H   0  0  0  0  0  0  0  0  0  0  0  0
    3.6858   -4.9598    0.0000 H   0  0  0  0  0  0  0  0  0  0  0  0
    0.7173   -3.7223    0.0000 H   0  0  0  0  0  0  0  0  0  0  0  0
   -0.7116   -2.8973    0.0000 H   0  0  0  0  0  0  0  0  0  0  0  0
  1  2  2  0  0  0  0
  2  3  1  0  0  0  0
  3  4  1  0  0  0  0
  4  5  1  0  0  0  0
  5  6  2  0  0  0  0
  5  7  1  0  0  0  0
  7  8  1  0  0  0  0
  7  9  1  0  0  0  0
  7 10  1  0  0  0  0
 10 11  1  0  0  0  0
 11 12  2  0  0  0  0
 11 13  1  0  0  0  0
 13 14  4  0  0  0  0
 14 15  4  0  0  0  0
 15 16  1  0  0  0  0
 16 17  1  0  0  0  0
 17 18  2  0  0  0  0
 17 19  1  0  0  0  0
 19 20  2  0  0  0  0
 20 21  1  0  0  0  0
 21 22  1  0  0  0  0
 21 23  1  0  0  0  0
 21 24  1  0  0  0  0
 20 25  1  0  0  0  0
 25 26  1  0  0  0  0
 25 27  1  0  0  0  0
 16 27  1  0  0  0  0
 27 28  2  0  0  0  0
 15 29  4  0  0  0  0
 29 30  4  0  0  0  0
 30 31  4  0  0  0  0
 13 31  4  0  0  0  0
 31 32  1  0  0  0  0
  1 33  1  0  0  0  0
  1 34  1  0  0  0  0
  2 35  1  0  0  0  0
  3 36  1  0  0  0  0
  3 37  1  0  0  0  0
  8 38  1  0  0  0  0
  8 39  1  0  0  0  0
  8 40  1  0  0  0  0
  9 41  1  0  0  0  0
  9 42  1  0  0  0  0
  9 43  1  0  0  0  0
 14 44  1  0  0  0  0
 19 45  1  0  0  0  0
 26 46  1  0  0  0  0
 26 47  1  0  0  0  0
 26 48  1  0  0  0  0
 29 49  1  0  0  0  0
 30 50  1  0  0  0  0
M  END
> <id>
441

> <casrn>
134605-64-4

> <smiles (First)>


> <Molecular weight>
474.81494140625

> <name>
-

> <Outcome>
0

> <Molecule (RDKit Mol) (InChI Code)>
InChI=1S/C20H18ClF3N2O6/c1-5-8-31-17(29)19(2,3)32-16(28)12-9-11(6-7-13(12)21)26-15(27)10-14(20(22,23)24)25(4)18(26)30/h5-7,9-10H,1,8H2,2-4H3

> <reference>
ECHA

> <molecule_form>
A

$$$$

  Mrv1812 01171911372D          

 13 12  0  0  0  0            999 V2000
    0.1105   -1.2375    0.0000 C   0  0  0  0  0  0  0  0  0  0  0  0
    0.8250   -0.8250    0.0000 N   0  0  0  0  0  0  0  0  0  0  0  0
    1.5395   -1.2375    0.0000 C   0  0  0  0  0  0  0  0  0  0  0  0
    0.8250    0.0000    0.0000 S   0  0  0  0  0  0  0  0  0  0  0  0
    0.8250    0.8250    0.0000 O   0  0  0  0  0  0  0  0  0  0  0  0
    1.6500    0.0000    0.0000 O   0  0  0  0  0  0  0  0  0  0  0  0
    0.0000    0.0000    0.0000 Cl  0  0  0  0  0  0  0  0  0  0  0  0
   -0.3020   -0.5230    0.0000 H   0  0  0  0  0  0  0  0  0  0  0  0
   -0.6039   -1.6500    0.0000 H   0  0  0  0  0  0  0  0  0  0  0  0
    0.5230   -1.9520    0.0000 H   0  0  0  0  0  0  0  0  0  0  0  0
    1.1270   -1.9520    0.0000 H   0  0  0  0  0  0  0  0  0  0  0  0
    2.2539   -1.6500    0.0000 H   0  0  0  0  0  0  0  0  0  0  0  0
    1.9520   -0.5230    0.0000 H   0  0  0  0  0  0  0  0  0  0  0  0
  1  2  1  0  0  0  0
  2  3  1  0  0  0  0
  2  4  1  0  0  0  0
  4  5  2  0  0  0  0
  4  6  2  0  0  0  0
  4  7  1  0  0  0  0
  1  8  1  0  0  0  0
  1  9  1  0  0  0  0
  1 10  1  0  0  0  0
  3 11  1  0  0  0  0
  3 12  1  0  0  0  0
  3 13  1  0  0  0  0
M  END
> <id>
3010; 3006; 3007

> <casrn>
13360-57-1

> <smiles (First)>


> <Molecular weight>
143.59254455566406

> <name>
dimethylsulfamoyl chloride

> <Outcome>
1

> <Molecule (RDKit Mol) (InChI Code)>
InChI=1S/C2H6ClNO2S/c1-4(2)7(3,5)6/h1-2H3

> <reference>
ECHA

> <molecule_form>
G

$$$$

  Mrv1812 01171911372D          

 14 14  0  0  0  0            999 V2000
    1.3494   -2.2403    0.0000 O   0  0  0  0  0  0  0  0  0  0  0  0
    0.8645   -1.5729    0.0000 C   0  0  0  0  0  0  0  0  0  0  0  0
    0.0395   -1.5729    0.0000 O   0  0  0  0  0  0  0  0  0  0  0  0
   -0.2154   -0.7882    0.0000 C   0  0  0  0  0  0  0  0  0  0  0  0
    0.4520   -0.3033    0.0000 C   0  0  0  0  0  0  0  0  0  0  0  0
    0.4520    0.5217    0.0000 C   0  0  0  0  0  0  0  0  0  0  0  0
   -0.2625    0.9342    0.0000 O   0  0  0  0  0  0  0  0  0  0  0  0
    1.1194   -0.7882    0.0000 O   0  0  0  0  0  0  0  0  0  0  0  0
   -0.7885   -0.1948    0.0000 H   0  0  0  0  0  0  0  0  0  0  0  0
   -1.0279   -0.9315    0.0000 H   0  0  0  0  0  0  0  0  0  0  0  0
    1.1871    0.0712    0.0000 H   0  0  0  0  0  0  0  0  0  0  0  0
    1.0924    1.0418    0.0000 H   0  0  0  0  0  0  0  0  0  0  0  0
    0.6035    1.3327    0.0000 H   0  0  0  0  0  0  0  0  0  0  0  0
   -1.0866    0.9723    0.0000 H   0  0  0  0  0  0  0  0  0  0  0  0
  1  2  2  0  0  0  0
  2  3  1  0  0  0  0
  3  4  1  0  0  0  0
  4  5  1  0  0  0  0
  5  6  1  0  0  0  0
  6  7  1  0  0  0  0
  5  8  1  0  0  0  0
  2  8  1  0  0  0  0
  4  9  1  0  0  0  0
  4 10  1  0  0  0  0
  5 11  1  0  0  0  0
  6 12  1  0  0  0  0
  6 13  1  0  0  0  0
  7 14  1  0  0  0  0
M  END
> <id>
1817

> <casrn>
931-40-8

> <smiles (First)>


> <Molecular weight>
118.08804321289062

> <name>
4-(hydroxymethyl)-1,3-dioxolan-2-one

> <Outcome>
0

> <Molecule (RDKit Mol) (InChI Code)>
InChI=1S/C4H6O4/c5-1-3-2-7-4(6)8-3/h3,5H,1-2H2

> <reference>
ECHA

> <molecule_form>
A

$$$$

  Mrv1812 01171911372D          

 15 14  0  0  0  0            999 V2000
   -0.1915    0.7169    0.0000 C   0  0  0  0  0  0  0  0  0  0  0  0
    0.5230    1.1294    0.0000 C   0  0  0  0  0  0  0  0  0  0  0  0
    1.2375    0.7169    0.0000 C   0  0  0  0  0  0  0  0  0  0  0  0
    1.2375   -0.1081    0.0000 O   0  0  0  0  0  0  0  0  0  0  0  0
    1.9519    1.1294    0.0000 O   0  0  0  0  0  0  0  0  0  0  0  0
    2.6664    0.7169    0.0000 C   0  0  0  0  0  0  0  0  0  0  0  0
    3.3809    1.1294    0.0000 C   0  0  0  0  0  0  0  0  0  0  0  0
   -0.9059    1.1294    0.0000 H   0  0  0  0  0  0  0  0  0  0  0  0
   -0.1915   -0.1081    0.0000 H   0  0  0  0  0  0  0  0  0  0  0  0
    0.5230    1.9544    0.0000 H   0  0  0  0  0  0  0  0  0  0  0  0
    2.2962   -0.0204    0.0000 H   0  0  0  0  0  0  0  0  0  0  0  0
    3.0367   -0.0204    0.0000 H   0  0  0  0  0  0  0  0  0  0  0  0
    3.7934    0.4149    0.0000 H   0  0  0  0  0  0  0  0  0  0  0  0
    4.0954    1.5419    0.0000 H   0  0  0  0  0  0  0  0  0  0  0  0
    2.9684    1.8438    0.0000 H   0  0  0  0  0  0  0  0  0  0  0  0
  1  2  2  0  0  0  0
  2  3  1  0  0  0  0
  3  4  2  0  0  0  0
  3  5  1  0  0  0  0
  5  6  1  0  0  0  0
  6  7  1  0  0  0  0
  1  8  1  0  0  0  0
  1  9  1  0  0  0  0
  2 10  1  0  0  0  0
  6 11  1  0  0  0  0
  6 12  1  0  0  0  0
  7 13  1  0  0  0  0
  7 14  1  0  0  0  0
  7 15  1  0  0  0  0
M  END
> <id>
3165; 3162

> <casrn>
140-88-5

> <smiles (First)>


> <Molecular weight>
100.1158218383789

> <name>
ethyl prop-2-enoate

> <Outcome>
1

> <Molecule (RDKit Mol) (InChI Code)>
InChI=1S/C5H8O2/c1-3-5(6)7-4-2/h3H,1,4H2,2H3

> <reference>
ECHA

> <molecule_form>
V

$$$$

  Mrv1812 01171911372D          

 14 13  0  0  0  0            999 V2000
    0.8250   -3.3000    0.0000 F   0  0  0  0  0  0  0  0  0  0  0  0
    0.8250   -2.4750    0.0000 C   0  0  0  0  0  0  0  0  0  0  0  0
    1.6500   -2.4750    0.0000 F   0  0  0  0  0  0  0  0  0  0  0  0
    0.0000   -2.4750    0.0000 I   0  0  0  0  0  0  0  0  0  0  0  0
    0.8250   -1.6500    0.0000 C   0  0  0  0  0  0  0  0  0  0  0  0
    1.6500   -1.6500    0.0000 F   0  0  0  0  0  0  0  0  0  0  0  0
    0.0000   -1.6500    0.0000 F   0  0  0  0  0  0  0  0  0  0  0  0
    0.8250   -0.8250    0.0000 C   0  0  0  0  0  0  0  0  0  0  0  0
    1.6500   -0.8250    0.0000 F   0  0  0  0  0  0  0  0  0  0  0  0
    0.0000   -0.8250    0.0000 F   0  0  0  0  0  0  0  0  0  0  0  0
    0.8250    0.0000    0.0000 C   0  0  0  0  0  0  0  0  0  0  0  0
    0.8250    0.8250    0.0000 F   0  0  0  0  0  0  0  0  0  0  0  0
    1.6500    0.0000    0.0000 F   0  0  0  0  0  0  0  0  0  0  0  0
    0.0000    0.0000    0.0000 I   0  0  0  0  0  0  0  0  0  0  0  0
  1  2  1  0  0  0  0
  2  3  1  0  0  0  0
  2  4  1  0  0  0  0
  2  5  1  0  0  0  0
  5  6  1  0  0  0  0
  5  7  1  0  0  0  0
  5  8  1  0  0  0  0
  8  9  1  0  0  0  0
  8 10  1  0  0  0  0
  8 11  1  0  0  0  0
 11 12  1  0  0  0  0
 11 13  1  0  0  0  0
 11 14  1  0  0  0  0
M  END
> <id>
881

> <casrn>
375-50-8

> <smiles (First)>


> <Molecular weight>
453.8389892578125

> <name>
1,1,2,2,3,3,4,4-octafluoro-1,4-diiodobutane

> <Outcome>
0

> <Molecule (RDKit Mol) (InChI Code)>
InChI=1S/C4F8I2/c5-1(6,3(9,10)13)2(7,8)4(11,12)14

> <reference>
ECHA

> <molecule_form>
V

$$$$

  Mrv1812 01171911372D          

 18 18  0  0  0  0            999 V2000
    0.8037    2.0913    0.0000 C   0  0  0  0  0  0  0  0  0  0  0  0
    0.8037    1.2663    0.0000 C   0  0  0  0  0  0  0  0  0  0  0  0
    1.5182    0.8538    0.0000 O   0  0  0  0  0  0  0  0  0  0  0  0
    1.5182    0.0288    0.0000 C   0  0  0  0  0  0  0  0  0  0  0  0
    2.2326   -0.3837    0.0000 O   0  0  0  0  0  0  0  0  0  0  0  0
    0.8037   -0.3837    0.0000 C   0  0  0  0  0  0  0  0  0  0  0  0
    0.8037   -1.2087    0.0000 C   0  0  0  0  0  0  0  0  0  0  0  0
    0.0892    0.0288    0.0000 O   0  0  0  0  0  0  0  0  0  0  0  0
    0.0892    0.8538    0.0000 C   0  0  0  0  0  0  0  0  0  0  0  0
   -0.6252    1.2663    0.0000 O   0  0  0  0  0  0  0  0  0  0  0  0
    1.6287    2.0913    0.0000 H   0  0  0  0  0  0  0  0  0  0  0  0
    0.8037    2.9163    0.0000 H   0  0  0  0  0  0  0  0  0  0  0  0
   -0.0213    2.0913    0.0000 H   0  0  0  0  0  0  0  0  0  0  0  0
    0.0892    1.6788    0.0000 H   0  0  0  0  0  0  0  0  0  0  0  0
    0.0892   -0.7962    0.0000 H   0  0  0  0  0  0  0  0  0  0  0  0
    0.2203   -1.7921    0.0000 H   0  0  0  0  0  0  0  0  0  0  0  0
    1.2162   -1.9232    0.0000 H   0  0  0  0  0  0  0  0  0  0  0  0
    1.6006   -0.9952    0.0000 H   0  0  0  0  0  0  0  0  0  0  0  0
  1  2  1  0  0  0  0
  2  3  1  0  0  0  0
  3  4  1  0  0  0  0
  4  5  2  0  0  0  0
  4  6  1  0  0  0  0
  6  7  1  0  0  0  0
  6  8  1  0  0  0  0
  8  9  1  0  0  0  0
  2  9  1  0  0  0  0
  9 10  2  0  0  0  0
  1 11  1  0  0  0  0
  1 12  1  0  0  0  0
  1 13  1  0  0  0  0
  2 14  1  0  0  0  0
  6 15  1  0  0  0  0
  7 16  1  0  0  0  0
  7 17  1  0  0  0  0
  7 18  1  0  0  0  0
M  END
> <id>
1739

> <casrn>
4511-42-6

> <smiles (First)>


> <Molecular weight>
144.1253204345703

> <name>
3,6-dimethyl-1,4-dioxane-2,5-dione

> <Outcome>
0

> <Molecule (RDKit Mol) (InChI Code)>
InChI=1S/C6H8O4/c1-3-5(7)10-4(2)6(8)9-3/h3-4H,1-2H3

> <reference>
ECHA

> <molecule_form>
A

$$$$

  Mrv1812 01171911372D          

 35 34  0  0  0  0            999 V2000
   -0.1766    0.7643    0.0000 C   0  0  0  0  0  0  0  0  0  0  0  0
    0.5378    1.1768    0.0000 C   0  0  0  0  0  0  0  0  0  0  0  0
    0.5378    2.0018    0.0000 C   0  0  0  0  0  0  0  0  0  0  0  0
    1.2523    0.7643    0.0000 O   0  0  0  0  0  0  0  0  0  0  0  0
    1.9668    1.1768    0.0000 C   0  0  0  0  0  0  0  0  0  0  0  0
    1.9668    2.0018    0.0000 O   0  0  0  0  0  0  0  0  0  0  0  0
    2.6812    0.7643    0.0000 C   0  0  0  0  0  0  0  0  0  0  0  0
    2.6812   -0.0607    0.0000 C   0  0  0  0  0  0  0  0  0  0  0  0
    3.3957    1.1768    0.0000 O   0  0  0  0  0  0  0  0  0  0  0  0
    4.1102    0.7643    0.0000 C   0  0  0  0  0  0  0  0  0  0  0  0
    4.1102   -0.0607    0.0000 O   0  0  0  0  0  0  0  0  0  0  0  0
    4.8247    1.1768    0.0000 C   0  0  0  0  0  0  0  0  0  0  0  0
    5.5391    1.5893    0.0000 C   0  0  0  0  0  0  0  0  0  0  0  0
    5.2372    0.4624    0.0000 C   0  0  0  0  0  0  0  0  0  0  0  0
    4.4122    1.8913    0.0000 C   0  0  0  0  0  0  0  0  0  0  0  0
   -0.5891    1.4788    0.0000 H   0  0  0  0  0  0  0  0  0  0  0  0
   -0.8911    0.3518    0.0000 H   0  0  0  0  0  0  0  0  0  0  0  0
    0.2359    0.0499    0.0000 H   0  0  0  0  0  0  0  0  0  0  0  0
   -0.1766    1.5893    0.0000 H   0  0  0  0  0  0  0  0  0  0  0  0
    1.3347    1.7883    0.0000 H   0  0  0  0  0  0  0  0  0  0  0  0
    0.9503    2.7163    0.0000 H   0  0  0  0  0  0  0  0  0  0  0  0
   -0.0455    2.5852    0.0000 H   0  0  0  0  0  0  0  0  0  0  0  0
    1.9668    0.3518    0.0000 H   0  0  0  0  0  0  0  0  0  0  0  0
    2.0979   -0.6440    0.0000 H   0  0  0  0  0  0  0  0  0  0  0  0
    3.0937   -0.7751    0.0000 H   0  0  0  0  0  0  0  0  0  0  0  0
    3.4781    0.1528    0.0000 H   0  0  0  0  0  0  0  0  0  0  0  0
    5.9516    0.8749    0.0000 H   0  0  0  0  0  0  0  0  0  0  0  0
    6.2536    2.0018    0.0000 H   0  0  0  0  0  0  0  0  0  0  0  0
    5.1266    2.3038    0.0000 H   0  0  0  0  0  0  0  0  0  0  0  0
    4.4192    0.3547    0.0000 H   0  0  0  0  0  0  0  0  0  0  0  0
    5.0236   -0.3345    0.0000 H   0  0  0  0  0  0  0  0  0  0  0  0
    5.8917   -0.0399    0.0000 H   0  0  0  0  0  0  0  0  0  0  0  0
    4.3045    2.7092    0.0000 H   0  0  0  0  0  0  0  0  0  0  0  0
    3.6153    2.1048    0.0000 H   0  0  0  0  0  0  0  0  0  0  0  0
    3.9099    1.2368    0.0000 H   0  0  0  0  0  0  0  0  0  0  0  0
  1  2  1  0  0  0  0
  2  3  1  0  0  0  0
  2  4  1  0  0  0  0
  4  5  1  0  0  0  0
  5  6  2  0  0  0  0
  5  7  1  0  0  0  0
  7  8  1  0  0  0  0
  7  9  1  0  0  0  0
  9 10  1  0  0  0  0
 10 11  2  0  0  0  0
 10 12  1  0  0  0  0
 12 13  1  0  0  0  0
 12 14  1  0  0  0  0
 12 15  1  0  0  0  0
  1 16  1  0  0  0  0
  1 17  1  0  0  0  0
  1 18  1  0  0  0  0
  2 19  1  0  0  0  0
  3 20  1  0  0  0  0
  3 21  1  0  0  0  0
  3 22  1  0  0  0  0
  7 23  1  0  0  0  0
  8 24  1  0  0  0  0
  8 25  1  0  0  0  0
  8 26  1  0  0  0  0
 13 27  1  0  0  0  0
 13 28  1  0  0  0  0
 13 29  1  0  0  0  0
 14 30  1  0  0  0  0
 14 31  1  0  0  0  0
 14 32  1  0  0  0  0
 15 33  1  0  0  0  0
 15 34  1  0  0  0  0
 15 35  1  0  0  0  0
M  END
> <id>
4179

> <casrn>
1584709-99-8

> <smiles (First)>


> <Molecular weight>
216.27410888671875

> <name>
unnamed [1584709-99-8]

> <Outcome>
0

> <Molecule (RDKit Mol) (InChI Code)>
InChI=1S/C11H20O4/c1-7(2)14-9(12)8(3)15-10(13)11(4,5)6/h7-8H,1-6H3

> <reference>
ECHA

> <molecule_form>
A

$$$$

  Mrv1812 01171911372D          

 28 27  0  0  0  0            999 V2000
    2.9980    2.5585    0.0000 C   0  0  0  0  0  0  0  0  0  0  0  0
    3.7125    2.1460    0.0000 C   0  0  0  0  0  0  0  0  0  0  0  0
    4.4270    2.5585    0.0000 C   0  0  0  0  0  0  0  0  0  0  0  0
    5.1414    2.1460    0.0000 C   0  0  0  0  0  0  0  0  0  0  0  0
    5.8559    2.5585    0.0000 N   0  0  0  0  0  0  0  0  0  0  0  0
    6.5704    2.1460    0.0000 C   0  0  0  0  0  0  0  0  0  0  0  0
    7.2849    2.5585    0.0000 C   0  0  0  0  0  0  0  0  0  0  0  0
    7.9993    2.1460    0.0000 C   0  0  0  0  0  0  0  0  0  0  0  0
    8.7138    2.5585    0.0000 C   0  0  0  0  0  0  0  0  0  0  0  0
    3.4105    3.2729    0.0000 H   0  0  0  0  0  0  0  0  0  0  0  0
    2.2836    2.9710    0.0000 H   0  0  0  0  0  0  0  0  0  0  0  0
    2.5855    1.8440    0.0000 H   0  0  0  0  0  0  0  0  0  0  0  0
    3.3422    1.4087    0.0000 H   0  0  0  0  0  0  0  0  0  0  0  0
    4.0828    1.4087    0.0000 H   0  0  0  0  0  0  0  0  0  0  0  0
    4.7972    3.2957    0.0000 H   0  0  0  0  0  0  0  0  0  0  0  0
    4.0567    3.2957    0.0000 H   0  0  0  0  0  0  0  0  0  0  0  0
    4.7712    1.4087    0.0000 H   0  0  0  0  0  0  0  0  0  0  0  0
    5.5117    1.4087    0.0000 H   0  0  0  0  0  0  0  0  0  0  0  0
    5.8559    3.3835    0.0000 H   0  0  0  0  0  0  0  0  0  0  0  0
    6.2001    1.4087    0.0000 H   0  0  0  0  0  0  0  0  0  0  0  0
    6.9406    1.4087    0.0000 H   0  0  0  0  0  0  0  0  0  0  0  0
    7.6551    3.2957    0.0000 H   0  0  0  0  0  0  0  0  0  0  0  0
    6.9146    3.2957    0.0000 H   0  0  0  0  0  0  0  0  0  0  0  0
    7.6291    1.4087    0.0000 H   0  0  0  0  0  0  0  0  0  0  0  0
    8.3696    1.4087    0.0000 H   0  0  0  0  0  0  0  0  0  0  0  0
    9.1263    1.8440    0.0000 H   0  0  0  0  0  0  0  0  0  0  0  0
    9.4283    2.9710    0.0000 H   0  0  0  0  0  0  0  0  0  0  0  0
    8.3013    3.2729    0.0000 H   0  0  0  0  0  0  0  0  0  0  0  0
  1  2  1  0  0  0  0
  2  3  1  0  0  0  0
  3  4  1  0  0  0  0
  4  5  1  0  0  0  0
  5  6  1  0  0  0  0
  6  7  1  0  0  0  0
  7  8  1  0  0  0  0
  8  9  1  0  0  0  0
  1 10  1  0  0  0  0
  1 11  1  0  0  0  0
  1 12  1  0  0  0  0
  2 13  1  0  0  0  0
  2 14  1  0  0  0  0
  3 15  1  0  0  0  0
  3 16  1  0  0  0  0
  4 17  1  0  0  0  0
  4 18  1  0  0  0  0
  5 19  1  0  0  0  0
  6 20  1  0  0  0  0
  6 21  1  0  0  0  0
  7 22  1  0  0  0  0
  7 23  1  0  0  0  0
  8 24  1  0  0  0  0
  8 25  1  0  0  0  0
  9 26  1  0  0  0  0
  9 27  1  0  0  0  0
  9 28  1  0  0  0  0
M  END
> <id>
2408; 2407

> <casrn>
111-92-2

> <smiles (First)>


> <Molecular weight>
129.2431640625

> <name>
N-butylbutan-1-amine

> <Outcome>
1

> <Molecule (RDKit Mol) (InChI Code)>
InChI=1S/C8H19N/c1-3-5-7-9-8-6-4-2/h9H,3-8H2,1-2H3

> <reference>
ECHA

> <molecule_form>
V

$$$$

  Mrv1812 01171911372D          

 11 11  0  0  0  0            999 V2000
    0.7145    1.2375    0.0000 C   0  0  0  0  0  0  0  0  0  0  0  0
    1.4289    0.8250    0.0000 C   0  0  0  0  0  0  0  0  0  0  0  0
    1.4289   -0.0000    0.0000 C   0  0  0  0  0  0  0  0  0  0  0  0
    0.7145   -0.4125    0.0000 N   0  0  0  0  0  0  0  0  0  0  0  0
   -0.0000   -0.0000    0.0000 C   0  0  0  0  0  0  0  0  0  0  0  0
   -0.0000    0.8250    0.0000 C   0  0  0  0  0  0  0  0  0  0  0  0
    0.7145    2.0625    0.0000 H   0  0  0  0  0  0  0  0  0  0  0  0
    2.1434    1.2375    0.0000 H   0  0  0  0  0  0  0  0  0  0  0  0
    2.1434   -0.4125    0.0000 H   0  0  0  0  0  0  0  0  0  0  0  0
   -0.7145   -0.4125    0.0000 H   0  0  0  0  0  0  0  0  0  0  0  0
   -0.7145    1.2375    0.0000 H   0  0  0  0  0  0  0  0  0  0  0  0
  1  2  4  0  0  0  0
  2  3  4  0  0  0  0
  3  4  4  0  0  0  0
  4  5  4  0  0  0  0
  5  6  4  0  0  0  0
  1  6  4  0  0  0  0
  1  7  1  0  0  0  0
  2  8  1  0  0  0  0
  3  9  1  0  0  0  0
  5 10  1  0  0  0  0
  6 11  1  0  0  0  0
M  END
> <id>
3812; 3811; 3810

> <casrn>
110-86-1

> <smiles (First)>


> <Molecular weight>
79.09989929199219

> <name>
pyridine

> <Outcome>
1

> <Molecule (RDKit Mol) (InChI Code)>
InChI=1S/C5H5N/c1-2-4-6-5-3-1/h1-5H

> <reference>
ECHA

> <molecule_form>
V

$$$$

  Mrv1812 01171911372D          

 16 15  0  0  0  0            999 V2000
    1.7590    1.6178    0.0000 C   0  0  0  0  0  0  0  0  0  0  0  0
    1.3465    0.9033    0.0000 C   0  0  0  0  0  0  0  0  0  0  0  0
    0.6320    1.3158    0.0000 C   0  0  0  0  0  0  0  0  0  0  0  0
    2.0610    0.4908    0.0000 C   0  0  0  0  0  0  0  0  0  0  0  0
    0.9340    0.1889    0.0000 C   0  0  0  0  0  0  0  0  0  0  0  0
    1.3465   -0.5256    0.0000 O   0  0  0  0  0  0  0  0  0  0  0  0
    0.1090    0.1889    0.0000 Cl  0  0  0  0  0  0  0  0  0  0  0  0
    2.4735    1.2053    0.0000 H   0  0  0  0  0  0  0  0  0  0  0  0
    2.1715    2.3323    0.0000 H   0  0  0  0  0  0  0  0  0  0  0  0
    1.0445    2.0303    0.0000 H   0  0  0  0  0  0  0  0  0  0  0  0
    0.1298    1.9704    0.0000 H   0  0  0  0  0  0  0  0  0  0  0  0
   -0.1648    1.1023    0.0000 H   0  0  0  0  0  0  0  0  0  0  0  0
    0.5244    0.4979    0.0000 H   0  0  0  0  0  0  0  0  0  0  0  0
    1.4065   -0.0114    0.0000 H   0  0  0  0  0  0  0  0  0  0  0  0
    2.2745   -0.3061    0.0000 H   0  0  0  0  0  0  0  0  0  0  0  0
    2.8789    0.3832    0.0000 H   0  0  0  0  0  0  0  0  0  0  0  0
  1  2  1  0  0  0  0
  2  3  1  0  0  0  0
  2  4  1  0  0  0  0
  2  5  1  0  0  0  0
  5  6  2  0  0  0  0
  5  7  1  0  0  0  0
  1  8  1  0  0  0  0
  1  9  1  0  0  0  0
  1 10  1  0  0  0  0
  3 11  1  0  0  0  0
  3 12  1  0  0  0  0
  3 13  1  0  0  0  0
  4 14  1  0  0  0  0
  4 15  1  0  0  0  0
  4 16  1  0  0  0  0
M  END
> <id>
1276

> <casrn>
3282-30-2

> <smiles (First)>


> <Molecular weight>
120.57736206054688

> <name>
2,2-dimethylpropanoyl chloride

> <Outcome>
1

> <Molecule (RDKit Mol) (InChI Code)>
InChI=1S/C5H9ClO/c1-5(2,3)4(6)7/h1-3H3

> <reference>
ECHA

> <molecule_form>
V

$$$$

  Mrv1812 01171911372D          

 12 11  0  0  0  0            999 V2000
    0.7746    1.3786    0.0000 C   0  0  0  0  0  0  0  0  0  0  0  0
    1.1871    0.6641    0.0000 C   0  0  0  0  0  0  0  0  0  0  0  0
    2.0121    0.6641    0.0000 O   0  0  0  0  0  0  0  0  0  0  0  0
    0.7746   -0.0503    0.0000 C   0  0  0  0  0  0  0  0  0  0  0  0
    1.1871   -0.7648    0.0000 O   0  0  0  0  0  0  0  0  0  0  0  0
   -0.0504   -0.0503    0.0000 O   0  0  0  0  0  0  0  0  0  0  0  0
    1.4891    1.7911    0.0000 H   0  0  0  0  0  0  0  0  0  0  0  0
    0.3621    2.0931    0.0000 H   0  0  0  0  0  0  0  0  0  0  0  0
    0.0602    0.9661    0.0000 H   0  0  0  0  0  0  0  0  0  0  0  0
    1.5996    1.3786    0.0000 H   0  0  0  0  0  0  0  0  0  0  0  0
    2.7266    0.2516    0.0000 H   0  0  0  0  0  0  0  0  0  0  0  0
   -0.4629    0.6641    0.0000 H   0  0  0  0  0  0  0  0  0  0  0  0
  1  2  1  0  0  0  0
  2  3  1  0  0  0  0
  2  4  1  0  0  0  0
  4  5  2  0  0  0  0
  4  6  1  0  0  0  0
  1  7  1  0  0  0  0
  1  8  1  0  0  0  0
  1  9  1  0  0  0  0
  2 10  1  0  0  0  0
  3 11  1  0  0  0  0
  6 12  1  0  0  0  0
M  END
> <id>
1487; 1486; 1488; 3849; 2749

> <casrn>
10326-41-7

> <smiles (First)>


> <Molecular weight>
89.67476501464844

> <name>
2-hydroxypropanoic acid

> <Outcome>
0

> <Molecule (RDKit Mol) (InChI Code)>
InChI=1S/C3H6O3/c1-2(4)3(5)6/h2,4H,1H3,(H,5,6)

> <reference>
ECHA

> <molecule_form>
A

$$$$

  Mrv1812 01171911372D          

 60 68  0  0  0  0            999 V2000
    2.3887    5.0376    0.0000 C   0  0  0  0  0  0  0  0  0  0  0  0
    1.9762    4.3231    0.0000 O   0  0  0  0  0  0  0  0  0  0  0  0
    2.3887    3.6087    0.0000 C   0  0  0  0  0  0  0  0  0  0  0  0
    3.2137    3.6087    0.0000 C   0  0  0  0  0  0  0  0  0  0  0  0
    3.6262    2.8942    0.0000 C   0  0  0  0  0  0  0  0  0  0  0  0
    4.4512    2.8942    0.0000 C   0  0  0  0  0  0  0  0  0  0  0  0
    4.8637    3.6087    0.0000 C   0  0  0  0  0  0  0  0  0  0  0  0
    5.6887    3.6087    0.0000 C   0  0  0  0  0  0  0  0  0  0  0  0
    6.1012    2.8942    0.0000 C   0  0  0  0  0  0  0  0  0  0  0  0
    5.6887    2.1797    0.0000 C   0  0  0  0  0  0  0  0  0  0  0  0
    4.8637    2.1797    0.0000 C   0  0  0  0  0  0  0  0  0  0  0  0
    4.4512    1.4652    0.0000 C   0  0  0  0  0  0  0  0  0  0  0  0
    4.8637    0.7508    0.0000 O   0  0  0  0  0  0  0  0  0  0  0  0
    3.6262    1.4652    0.0000 C   0  0  0  0  0  0  0  0  0  0  0  0
    3.2137    0.7508    0.0000 C   0  0  0  0  0  0  0  0  0  0  0  0
    2.3887    0.7508    0.0000 C   0  0  0  0  0  0  0  0  0  0  0  0
    1.9762    1.4652    0.0000 C   0  0  0  0  0  0  0  0  0  0  0  0
    1.1512    1.4652    0.0000 C   0  0  0  0  0  0  0  0  0  0  0  0
    0.7387    0.7508    0.0000 C   0  0  0  0  0  0  0  0  0  0  0  0
   -0.0863    0.7508    0.0000 C   0  0  0  0  0  0  0  0  0  0  0  0
   -0.4988    1.4652    0.0000 C   0  0  0  0  0  0  0  0  0  0  0  0
   -1.3238    1.4652    0.0000 C   0  0  0  0  0  0  0  0  0  0  0  0
   -1.7363    0.7508    0.0000 O   0  0  0  0  0  0  0  0  0  0  0  0
   -1.7363    2.1797    0.0000 C   0  0  0  0  0  0  0  0  0  0  0  0
   -2.5613    2.1797    0.0000 C   0  0  0  0  0  0  0  0  0  0  0  0
   -2.9738    2.8942    0.0000 C   0  0  0  0  0  0  0  0  0  0  0  0
   -2.5613    3.6087    0.0000 C   0  0  0  0  0  0  0  0  0  0  0  0
   -1.7363    3.6087    0.0000 C   0  0  0  0  0  0  0  0  0  0  0  0
   -1.3238    2.8942    0.0000 C   0  0  0  0  0  0  0  0  0  0  0  0
   -0.4988    2.8942    0.0000 C   0  0  0  0  0  0  0  0  0  0  0  0
   -0.0863    3.6087    0.0000 C   0  0  0  0  0  0  0  0  0  0  0  0
    0.7387    3.6087    0.0000 C   0  0  0  0  0  0  0  0  0  0  0  0
    1.1512    4.3231    0.0000 O   0  0  0  0  0  0  0  0  0  0  0  0
    0.7387    5.0376    0.0000 C   0  0  0  0  0  0  0  0  0  0  0  0
    1.1512    2.8942    0.0000 C   0  0  0  0  0  0  0  0  0  0  0  0
    1.9762    2.8942    0.0000 C   0  0  0  0  0  0  0  0  0  0  0  0
    2.3887    2.1797    0.0000 C   0  0  0  0  0  0  0  0  0  0  0  0
    3.2137    2.1797    0.0000 C   0  0  0  0  0  0  0  0  0  0  0  0
    0.7387    2.1797    0.0000 C   0  0  0  0  0  0  0  0  0  0  0  0
   -0.0863    2.1797    0.0000 C   0  0  0  0  0  0  0  0  0  0  0  0
    3.1032    4.6251    0.0000 H   0  0  0  0  0  0  0  0  0  0  0  0
    2.8012    5.7521    0.0000 H   0  0  0  0  0  0  0  0  0  0  0  0
    1.6742    5.4501    0.0000 H   0  0  0  0  0  0  0  0  0  0  0  0
    3.6262    4.3231    0.0000 H   0  0  0  0  0  0  0  0  0  0  0  0
    4.4512    4.3231    0.0000 H   0  0  0  0  0  0  0  0  0  0  0  0
    6.1012    4.3231    0.0000 H   0  0  0  0  0  0  0  0  0  0  0  0
    6.9262    2.8942    0.0000 H   0  0  0  0  0  0  0  0  0  0  0  0
    6.1012    1.4652    0.0000 H   0  0  0  0  0  0  0  0  0  0  0  0
    3.6262    0.0363    0.0000 H   0  0  0  0  0  0  0  0  0  0  0  0
    1.9762    0.0363    0.0000 H   0  0  0  0  0  0  0  0  0  0  0  0
    1.1512    0.0363    0.0000 H   0  0  0  0  0  0  0  0  0  0  0  0
   -0.4988    0.0363    0.0000 H   0  0  0  0  0  0  0  0  0  0  0  0
   -2.9738    1.4652    0.0000 H   0  0  0  0  0  0  0  0  0  0  0  0
   -3.7988    2.8942    0.0000 H   0  0  0  0  0  0  0  0  0  0  0  0
   -2.9738    4.3231    0.0000 H   0  0  0  0  0  0  0  0  0  0  0  0
   -1.3238    4.3231    0.0000 H   0  0  0  0  0  0  0  0  0  0  0  0
   -0.4988    4.3231    0.0000 H   0  0  0  0  0  0  0  0  0  0  0  0
    1.4532    5.4501    0.0000 H   0  0  0  0  0  0  0  0  0  0  0  0
    0.3262    5.7521    0.0000 H   0  0  0  0  0  0  0  0  0  0  0  0
    0.0242    4.6251    0.0000 H   0  0  0  0  0  0  0  0  0  0  0  0
  1  2  1  0  0  0  0
  2  3  1  0  0  0  0
  3  4  4  0  0  0  0
  4  5  4  0  0  0  0
  5  6  1  0  0  0  0
  6  7  4  0  0  0  0
  7  8  4  0  0  0  0
  8  9  4  0  0  0  0
  9 10  4  0  0  0  0
 10 11  4  0  0  0  0
  6 11  4  0  0  0  0
 11 12  1  0  0  0  0
 12 13  2  0  0  0  0
 12 14  1  0  0  0  0
 14 15  4  0  0  0  0
 15 16  4  0  0  0  0
 16 17  4  0  0  0  0
 17 18  4  0  0  0  0
 18 19  4  0  0  0  0
 19 20  4  0  0  0  0
 20 21  4  0  0  0  0
 21 22  1  0  0  0  0
 22 23  2  0  0  0  0
 22 24  1  0  0  0  0
 24 25  4  0  0  0  0
 25 26  4  0  0  0  0
 26 27  4  0  0  0  0
 27 28  4  0  0  0  0
 28 29  4  0  0  0  0
 24 29  4  0  0  0  0
 29 30  1  0  0  0  0
 30 31  4  0  0  0  0
 31 32  4  0  0  0  0
 32 33  1  0  0  0  0
 33 34  1  0  0  0  0
 32 35  4  0  0  0  0
 35 36  4  0  0  0  0
  3 36  4  0  0  0  0
 36 37  4  0  0  0  0
 17 37  4  0  0  0  0
 37 38  4  0  0  0  0
 14 38  4  0  0  0  0
  5 38  4  0  0  0  0
 35 39  4  0  0  0  0
 18 39  4  0  0  0  0
 39 40  4  0  0  0  0
 21 40  4  0  0  0  0
 30 40  4  0  0  0  0
  1 41  1  0  0  0  0
  1 42  1  0  0  0  0
  1 43  1  0  0  0  0
  4 44  1  0  0  0  0
  7 45  1  0  0  0  0
  8 46  1  0  0  0  0
  9 47  1  0  0  0  0
 10 48  1  0  0  0  0
 15 49  1  0  0  0  0
 16 50  1  0  0  0  0
 19 51  1  0  0  0  0
 20 52  1  0  0  0  0
 25 53  1  0  0  0  0
 26 54  1  0  0  0  0
 27 55  1  0  0  0  0
 28 56  1  0  0  0  0
 31 57  1  0  0  0  0
 34 58  1  0  0  0  0
 34 59  1  0  0  0  0
 34 60  1  0  0  0  0
M  END
> <id>
1809

> <casrn>
128-58-5

> <smiles (First)>


> <Molecular weight>
516.5416259765625

> <name>
30,34-dimethoxynonacyclo[18.10.2.2??,????.0??,??????.0????,????.0????,????.0??????,????.0????,??????.0??????,????]tetratriaconta-1(30),2(34),3,5(33),6,8,10,13,15,17,19,22,24,26,28,31-hexadecaene-12,21-dione

> <Outcome>
1

> <Molecule (RDKit Mol) (InChI Code)>
InChI=1S/C36H20O4/c1-39-27-15-25-17-7-3-5-9-21(17)35(37)23-13-11-19-20-12-14-24-30-26(18-8-4-6-10-22(18)36(24)38)16-28(40-2)34(32(20)30)33(27)31(19)29(23)25/h3-16H,1-2H3

> <reference>
ECHA

> <molecule_form>
A

$$$$

  Mrv1812 01171911372D          

 19 19  0  0  0  0            999 V2000
   -0.0000    2.4750    0.0000 C   0  0  0  0  0  0  0  0  0  0  0  0
    0.7145    2.0625    0.0000 C   0  0  0  0  0  0  0  0  0  0  0  0
    0.7145    1.2375    0.0000 C   0  0  0  0  0  0  0  0  0  0  0  0
    1.4289    0.8250    0.0000 C   0  0  0  0  0  0  0  0  0  0  0  0
    1.4289    0.0000    0.0000 C   0  0  0  0  0  0  0  0  0  0  0  0
    0.7145   -0.4125    0.0000 C   0  0  0  0  0  0  0  0  0  0  0  0
   -0.0000    0.0000    0.0000 C   0  0  0  0  0  0  0  0  0  0  0  0
   -0.7145   -0.4125    0.0000 C   0  0  0  0  0  0  0  0  0  0  0  0
   -0.0000    0.8250    0.0000 C   0  0  0  0  0  0  0  0  0  0  0  0
   -0.0000    3.3000    0.0000 H   0  0  0  0  0  0  0  0  0  0  0  0
   -0.7145    2.0625    0.0000 H   0  0  0  0  0  0  0  0  0  0  0  0
    1.4289    2.4750    0.0000 H   0  0  0  0  0  0  0  0  0  0  0  0
    2.1434    1.2375    0.0000 H   0  0  0  0  0  0  0  0  0  0  0  0
    2.1434   -0.4125    0.0000 H   0  0  0  0  0  0  0  0  0  0  0  0
    0.7145   -1.2375    0.0000 H   0  0  0  0  0  0  0  0  0  0  0  0
   -1.1270    0.3020    0.0000 H   0  0  0  0  0  0  0  0  0  0  0  0
   -1.4289   -0.8250    0.0000 H   0  0  0  0  0  0  0  0  0  0  0  0
   -0.3020   -1.1270    0.0000 H   0  0  0  0  0  0  0  0  0  0  0  0
   -0.7145    1.2375    0.0000 H   0  0  0  0  0  0  0  0  0  0  0  0
  1  2  2  0  0  0  0
  2  3  1  0  0  0  0
  3  4  4  0  0  0  0
  4  5  4  0  0  0  0
  5  6  4  0  0  0  0
  6  7  4  0  0  0  0
  7  8  1  0  0  0  0
  7  9  4  0  0  0  0
  3  9  4  0  0  0  0
  1 10  1  0  0  0  0
  1 11  1  0  0  0  0
  2 12  1  0  0  0  0
  4 13  1  0  0  0  0
  5 14  1  0  0  0  0
  6 15  1  0  0  0  0
  8 16  1  0  0  0  0
  8 17  1  0  0  0  0
  8 18  1  0  0  0  0
  9 19  1  0  0  0  0
M  END
> <id>
4617

> <casrn>
25013-15-4

> <smiles (First)>


> <Molecular weight>
118.17570495605469

> <name>
vinyltoluene

> <Outcome>
1

> <Molecule (RDKit Mol) (InChI Code)>
InChI=1S/C9H10/c1-3-9-6-4-5-8(2)7-9/h3-7H,1H2,2H3

> <reference>
ECHA

> <molecule_form>
V

$$$$

  Mrv1812 01171911372D          

 21 20  0  0  0  0            999 V2000
    1.1974    0.8515    0.0000 C   0  0  0  0  0  0  0  0  0  0  0  0
    1.1974    0.0265    0.0000 C   0  0  0  0  0  0  0  0  0  0  0  0
    1.1974   -0.7985    0.0000 C   0  0  0  0  0  0  0  0  0  0  0  0
    1.9119   -1.2110    0.0000 N   0  0  0  0  0  0  0  0  0  0  0  0
    1.9119   -2.0360    0.0000 C   0  0  0  0  0  0  0  0  0  0  0  0
    2.6263   -2.4485    0.0000 C   0  0  0  0  0  0  0  0  0  0  0  0
    2.6263   -0.7985    0.0000 C   0  0  0  0  0  0  0  0  0  0  0  0
    3.3408   -1.2110    0.0000 C   0  0  0  0  0  0  0  0  0  0  0  0
    1.1974    1.6765    0.0000 H   0  0  0  0  0  0  0  0  0  0  0  0
    0.3738   -0.8465    0.0000 H   0  0  0  0  0  0  0  0  0  0  0  0
    0.7441   -1.4878    0.0000 H   0  0  0  0  0  0  0  0  0  0  0  0
    1.0883   -2.0840    0.0000 H   0  0  0  0  0  0  0  0  0  0  0  0
    1.4585   -2.7253    0.0000 H   0  0  0  0  0  0  0  0  0  0  0  0
    2.2138   -3.1630    0.0000 H   0  0  0  0  0  0  0  0  0  0  0  0
    3.3408   -2.8610    0.0000 H   0  0  0  0  0  0  0  0  0  0  0  0
    3.0388   -1.7340    0.0000 H   0  0  0  0  0  0  0  0  0  0  0  0
    2.9966   -0.0613    0.0000 H   0  0  0  0  0  0  0  0  0  0  0  0
    2.2561   -0.0613    0.0000 H   0  0  0  0  0  0  0  0  0  0  0  0
    3.8430   -1.8655    0.0000 H   0  0  0  0  0  0  0  0  0  0  0  0
    4.1377   -0.9975    0.0000 H   0  0  0  0  0  0  0  0  0  0  0  0
    3.4485   -0.3931    0.0000 H   0  0  0  0  0  0  0  0  0  0  0  0
  1  2  3  0  0  0  0
  2  3  1  0  0  0  0
  3  4  1  0  0  0  0
  4  5  1  0  0  0  0
  5  6  1  0  0  0  0
  4  7  1  0  0  0  0
  7  8  1  0  0  0  0
  1  9  1  0  0  0  0
  3 10  1  0  0  0  0
  3 11  1  0  0  0  0
  5 12  1  0  0  0  0
  5 13  1  0  0  0  0
  6 14  1  0  0  0  0
  6 15  1  0  0  0  0
  6 16  1  0  0  0  0
  7 17  1  0  0  0  0
  7 18  1  0  0  0  0
  8 19  1  0  0  0  0
  8 20  1  0  0  0  0
  8 21  1  0  0  0  0
M  END
> <id>
2968

> <casrn>
4079-68-9

> <smiles (First)>


> <Molecular weight>
111.18482208251953

> <name>
diethyl(prop-2-yn-1-yl)amine

> <Outcome>
1

> <Molecule (RDKit Mol) (InChI Code)>
InChI=1S/C7H13N/c1-4-7-8(5-2)6-3/h1H,5-7H2,2-3H3

> <reference>
ECHA

> <molecule_form>
V

$$$$

  Mrv1812 01171911372D          

 36 35  0  0  0  0            999 V2000
    5.1197    1.0622    0.0000 O   0  0  0  0  0  0  0  0  0  0  0  0
    5.9298    1.2181    0.0000 C   0  0  0  0  0  0  0  0  0  0  0  0
    6.1999    1.9977    0.0000 O   0  0  0  0  0  0  0  0  0  0  0  0
    6.4699    0.5945    0.0000 C   0  0  0  0  0  0  0  0  0  0  0  0
    6.1999   -0.1851    0.0000 N   0  0  0  0  0  0  0  0  0  0  0  0
    5.3898   -0.3410    0.0000 C   0  0  0  0  0  0  0  0  0  0  0  0
    5.1197   -1.1205    0.0000 C   0  0  0  0  0  0  0  0  0  0  0  0
    4.3096   -1.2764    0.0000 N   0  0  0  0  0  0  0  0  0  0  0  0
    4.0395   -2.0560    0.0000 C   0  0  0  0  0  0  0  0  0  0  0  0
    4.5796   -2.6796    0.0000 C   0  0  0  0  0  0  0  0  0  0  0  0
    5.3898   -2.5237    0.0000 O   0  0  0  0  0  0  0  0  0  0  0  0
    4.3096   -3.4592    0.0000 O   0  0  0  0  0  0  0  0  0  0  0  0
    3.7695   -0.6528    0.0000 C   0  0  0  0  0  0  0  0  0  0  0  0
    2.9594   -0.8087    0.0000 C   0  0  0  0  0  0  0  0  0  0  0  0
    2.4193   -0.1851    0.0000 O   0  0  0  0  0  0  0  0  0  0  0  0
    2.6893   -1.5883    0.0000 O   0  0  0  0  0  0  0  0  0  0  0  0
    6.7400   -0.8087    0.0000 C   0  0  0  0  0  0  0  0  0  0  0  0
    7.5501   -0.6528    0.0000 C   0  0  0  0  0  0  0  0  0  0  0  0
    7.8202    0.1268    0.0000 O   0  0  0  0  0  0  0  0  0  0  0  0
    8.0902   -1.2764    0.0000 O   0  0  0  0  0  0  0  0  0  0  0  0
    7.0100    2.1536    0.0000 H   0  0  0  0  0  0  0  0  0  0  0  0
    7.2639    0.3702    0.0000 H   0  0  0  0  0  0  0  0  0  0  0  0
    7.1239    1.0974    0.0000 H   0  0  0  0  0  0  0  0  0  0  0  0
    5.1870    0.4587    0.0000 H   0  0  0  0  0  0  0  0  0  0  0  0
    4.6272   -0.0261    0.0000 H   0  0  0  0  0  0  0  0  0  0  0  0
    5.3225   -1.9202    0.0000 H   0  0  0  0  0  0  0  0  0  0  0  0
    5.8822   -1.4354    0.0000 H   0  0  0  0  0  0  0  0  0  0  0  0
    3.2456   -1.8317    0.0000 H   0  0  0  0  0  0  0  0  0  0  0  0
    3.3855   -2.5589    0.0000 H   0  0  0  0  0  0  0  0  0  0  0  0
    3.4994   -3.6151    0.0000 H   0  0  0  0  0  0  0  0  0  0  0  0
    4.3607   -0.0774    0.0000 H   0  0  0  0  0  0  0  0  0  0  0  0
    3.6609    0.1650    0.0000 H   0  0  0  0  0  0  0  0  0  0  0  0
    1.9335   -1.9189    0.0000 H   0  0  0  0  0  0  0  0  0  0  0  0
    6.1488   -1.3841    0.0000 H   0  0  0  0  0  0  0  0  0  0  0  0
    6.8485   -1.6265    0.0000 H   0  0  0  0  0  0  0  0  0  0  0  0
    7.8202   -2.0560    0.0000 H   0  0  0  0  0  0  0  0  0  0  0  0
  1  2  2  0  0  0  0
  2  3  1  0  0  0  0
  2  4  1  0  0  0  0
  4  5  1  0  0  0  0
  5  6  1  0  0  0  0
  6  7  1  0  0  0  0
  7  8  1  0  0  0  0
  8  9  1  0  0  0  0
  9 10  1  0  0  0  0
 10 11  2  0  0  0  0
 10 12  1  0  0  0  0
  8 13  1  0  0  0  0
 13 14  1  0  0  0  0
 14 15  2  0  0  0  0
 14 16  1  0  0  0  0
  5 17  1  0  0  0  0
 17 18  1  0  0  0  0
 18 19  2  0  0  0  0
 18 20  1  0  0  0  0
  3 21  1  0  0  0  0
  4 22  1  0  0  0  0
  4 23  1  0  0  0  0
  6 24  1  0  0  0  0
  6 25  1  0  0  0  0
  7 26  1  0  0  0  0
  7 27  1  0  0  0  0
  9 28  1  0  0  0  0
  9 29  1  0  0  0  0
 12 30  1  0  0  0  0
 13 31  1  0  0  0  0
 13 32  1  0  0  0  0
 16 33  1  0  0  0  0
 17 34  1  0  0  0  0
 17 35  1  0  0  0  0
 20 36  1  0  0  0  0
M  END
> <id>
3408; 4177

> <casrn>
15375-84-5

> <smiles (First)>


> <Molecular weight>
288.21087646484375

> <name>
manganese(2+) ion disodium 2-({2-[bis(carboxylatomethyl)amino]ethyl}(carboxylatomethyl)amino)acetate

> <Outcome>
0

> <Molecule (RDKit Mol) (InChI Code)>
InChI=1S/C10H16N2O8/c13-7(14)3-11(4-8(15)16)1-2-12(5-9(17)18)6-10(19)20/h1-6H2,(H,13,14)(H,15,16)(H,17,18)(H,19,20)

> <reference>
ECHA

> <molecule_form>
A

$$$$

  Mrv1812 01171911372D          

 24 23  0  0  0  0            999 V2000
    3.0999   -2.2087    0.0000 C   0  0  0  0  0  0  0  0  0  0  0  0
    2.6874   -1.4943    0.0000 C   0  0  0  0  0  0  0  0  0  0  0  0
    1.8624   -1.4943    0.0000 O   0  0  0  0  0  0  0  0  0  0  0  0
    1.4499   -0.7798    0.0000 C   0  0  0  0  0  0  0  0  0  0  0  0
    2.1644   -0.3673    0.0000 C   0  0  0  0  0  0  0  0  0  0  0  0
    0.7355   -1.1923    0.0000 C   0  0  0  0  0  0  0  0  0  0  0  0
    1.0374   -0.0653    0.0000 C   0  0  0  0  0  0  0  0  0  0  0  0
    0.2124   -0.0653    0.0000 C   0  0  0  0  0  0  0  0  0  0  0  0
    2.3855   -2.6212    0.0000 H   0  0  0  0  0  0  0  0  0  0  0  0
    3.5124   -2.9232    0.0000 H   0  0  0  0  0  0  0  0  0  0  0  0
    3.8144   -1.7962    0.0000 H   0  0  0  0  0  0  0  0  0  0  0  0
    3.3767   -1.0409    0.0000 H   0  0  0  0  0  0  0  0  0  0  0  0
    2.7354   -0.6707    0.0000 H   0  0  0  0  0  0  0  0  0  0  0  0
    2.8677    0.0639    0.0000 H   0  0  0  0  0  0  0  0  0  0  0  0
    2.1499    0.4576    0.0000 H   0  0  0  0  0  0  0  0  0  0  0  0
    1.4463    0.0389    0.0000 H   0  0  0  0  0  0  0  0  0  0  0  0
    0.3230   -0.4778    0.0000 H   0  0  0  0  0  0  0  0  0  0  0  0
    0.0210   -1.6048    0.0000 H   0  0  0  0  0  0  0  0  0  0  0  0
    1.1480   -1.9068    0.0000 H   0  0  0  0  0  0  0  0  0  0  0  0
    1.3259    0.7076    0.0000 H   0  0  0  0  0  0  0  0  0  0  0  0
    0.5670    0.6124    0.0000 H   0  0  0  0  0  0  0  0  0  0  0  0
   -0.1754    0.6629    0.0000 H   0  0  0  0  0  0  0  0  0  0  0  0
   -0.6076    0.0253    0.0000 H   0  0  0  0  0  0  0  0  0  0  0  0
   -0.3250   -0.6912    0.0000 H   0  0  0  0  0  0  0  0  0  0  0  0
  1  2  1  0  0  0  0
  2  3  1  0  0  0  0
  3  4  1  0  0  0  0
  4  5  1  0  0  0  0
  4  6  1  0  0  0  0
  4  7  1  0  0  0  0
  7  8  1  0  0  0  0
  1  9  1  0  0  0  0
  1 10  1  0  0  0  0
  1 11  1  0  0  0  0
  2 12  1  0  0  0  0
  2 13  1  0  0  0  0
  5 14  1  0  0  0  0
  5 15  1  0  0  0  0
  5 16  1  0  0  0  0
  6 17  1  0  0  0  0
  6 18  1  0  0  0  0
  6 19  1  0  0  0  0
  7 20  1  0  0  0  0
  7 21  1  0  0  0  0
  8 22  1  0  0  0  0
  8 23  1  0  0  0  0
  8 24  1  0  0  0  0
M  END
> <id>
280

> <casrn>
919-94-8

> <smiles (First)>


> <Molecular weight>
116.20133972167969

> <name>
-

> <Outcome>
0

> <Molecule (RDKit Mol) (InChI Code)>
InChI=1S/C7H16O/c1-5-7(3,4)8-6-2/h5-6H2,1-4H3

> <reference>
ECHA

> <molecule_form>
V

$$$$

  Mrv1812 01171911372D          

  6  5  0  0  0  0            999 V2000
    1.2375    0.7145    0.0000 Cl  0  0  0  0  0  0  0  0  0  0  0  0
    0.8250    0.0000    0.0000 C   0  0  0  0  0  0  0  0  0  0  0  0
    0.0000    0.0000    0.0000 C   0  0  0  0  0  0  0  0  0  0  0  0
   -0.4125   -0.7145    0.0000 Cl  0  0  0  0  0  0  0  0  0  0  0  0
    1.2375   -0.7145    0.0000 H   0  0  0  0  0  0  0  0  0  0  0  0
   -0.4125    0.7145    0.0000 H   0  0  0  0  0  0  0  0  0  0  0  0
  2  1  1  4  0  0  0
  2  3  2  0  0  0  0
  3  4  1  0  0  0  0
  2  5  1  0  0  0  0
  3  6  1  0  0  0  0
M  END
> <id>
214

> <casrn>
156-60-5

> <smiles (First)>


> <Molecular weight>
96.94327545166016

> <name>
(E)-1,2-dichloroethene

> <Outcome>
0

> <Molecule (RDKit Mol) (InChI Code)>
InChI=1S/C2H2Cl2/c3-1-2-4/h1-2H

> <reference>
ECHA

> <molecule_form>
V

$$$$

  Mrv1812 01171911372D          

 23 22  0  0  0  0            999 V2000
    2.9980    2.5575    0.0000 C   0  0  0  0  0  0  0  0  0  0  0  0
    3.7125    2.1450    0.0000 C   0  0  0  0  0  0  0  0  0  0  0  0
    4.4270    2.5575    0.0000 C   0  0  0  0  0  0  0  0  0  0  0  0
    5.1414    2.1450    0.0000 C   0  0  0  0  0  0  0  0  0  0  0  0
    5.8559    2.5575    0.0000 C   0  0  0  0  0  0  0  0  0  0  0  0
    6.5704    2.1450    0.0000 C   0  0  0  0  0  0  0  0  0  0  0  0
    7.2848    2.5575    0.0000 O   0  0  0  0  0  0  0  0  0  0  0  0
    7.9993    2.1450    0.0000 C   0  0  0  0  0  0  0  0  0  0  0  0
    8.7138    2.5575    0.0000 O   0  0  0  0  0  0  0  0  0  0  0  0
    7.9993    1.3200    0.0000 Cl  0  0  0  0  0  0  0  0  0  0  0  0
    3.4105    3.2719    0.0000 H   0  0  0  0  0  0  0  0  0  0  0  0
    2.2835    2.9700    0.0000 H   0  0  0  0  0  0  0  0  0  0  0  0
    2.5855    1.8430    0.0000 H   0  0  0  0  0  0  0  0  0  0  0  0
    3.3422    1.4077    0.0000 H   0  0  0  0  0  0  0  0  0  0  0  0
    4.0828    1.4077    0.0000 H   0  0  0  0  0  0  0  0  0  0  0  0
    4.7972    3.2947    0.0000 H   0  0  0  0  0  0  0  0  0  0  0  0
    4.0567    3.2947    0.0000 H   0  0  0  0  0  0  0  0  0  0  0  0
    4.7712    1.4077    0.0000 H   0  0  0  0  0  0  0  0  0  0  0  0
    5.5117    1.4077    0.0000 H   0  0  0  0  0  0  0  0  0  0  0  0
    6.2262    3.2947    0.0000 H   0  0  0  0  0  0  0  0  0  0  0  0
    5.4856    3.2947    0.0000 H   0  0  0  0  0  0  0  0  0  0  0  0
    6.2001    1.4077    0.0000 H   0  0  0  0  0  0  0  0  0  0  0  0
    6.9406    1.4077    0.0000 H   0  0  0  0  0  0  0  0  0  0  0  0
  1  2  1  0  0  0  0
  2  3  1  0  0  0  0
  3  4  1  0  0  0  0
  4  5  1  0  0  0  0
  5  6  1  0  0  0  0
  6  7  1  0  0  0  0
  7  8  1  0  0  0  0
  8  9  2  0  0  0  0
  8 10  1  0  0  0  0
  1 11  1  0  0  0  0
  1 12  1  0  0  0  0
  1 13  1  0  0  0  0
  2 14  1  0  0  0  0
  2 15  1  0  0  0  0
  3 16  1  0  0  0  0
  3 17  1  0  0  0  0
  4 18  1  0  0  0  0
  4 19  1  0  0  0  0
  5 20  1  0  0  0  0
  5 21  1  0  0  0  0
  6 22  1  0  0  0  0
  6 23  1  0  0  0  0
M  END
> <id>
2787

> <casrn>
6092-54-2

> <smiles (First)>


> <Molecular weight>
164.6299285888672

> <name>
chloro(hexyloxy)methanone

> <Outcome>
1

> <Molecule (RDKit Mol) (InChI Code)>
InChI=1S/C7H13ClO2/c1-2-3-4-5-6-10-7(8)9/h2-6H2,1H3

> <reference>
ECHA

> <molecule_form>
V

$$$$

  Mrv1812 01171911372D          

 39 40  0  0  0  0            999 V2000
    4.7760    0.3938    0.0000 C   0  0  0  0  0  0  0  0  0  0  0  0
    3.9510    0.3938    0.0000 C   0  0  0  0  0  0  0  0  0  0  0  0
    3.9510    1.2188    0.0000 C   0  0  0  0  0  0  0  0  0  0  0  0
    3.9510   -0.4312    0.0000 C   0  0  0  0  0  0  0  0  0  0  0  0
    3.1260    0.3938    0.0000 C   0  0  0  0  0  0  0  0  0  0  0  0
    2.7135   -0.3207    0.0000 C   0  0  0  0  0  0  0  0  0  0  0  0
    1.8885   -0.3207    0.0000 C   0  0  0  0  0  0  0  0  0  0  0  0
    1.4760    0.3938    0.0000 C   0  0  0  0  0  0  0  0  0  0  0  0
    1.8885    1.1082    0.0000 C   0  0  0  0  0  0  0  0  0  0  0  0
    2.7135    1.1082    0.0000 C   0  0  0  0  0  0  0  0  0  0  0  0
    0.9911   -0.2737    0.0000 O   0  0  0  0  0  0  0  0  0  0  0  0
    0.2065   -0.0187    0.0000 C   0  0  0  0  0  0  0  0  0  0  0  0
    0.2065    0.8063    0.0000 C   0  0  0  0  0  0  0  0  0  0  0  0
   -0.4610    1.2912    0.0000 C   0  0  0  0  0  0  0  0  0  0  0  0
   -1.2146    0.9556    0.0000 Cl  0  0  0  0  0  0  0  0  0  0  0  0
    0.9911    1.0612    0.0000 O   0  0  0  0  0  0  0  0  0  0  0  0
    4.7760   -0.4312    0.0000 H   0  0  0  0  0  0  0  0  0  0  0  0
    5.6010    0.3938    0.0000 H   0  0  0  0  0  0  0  0  0  0  0  0
    4.7760    1.2188    0.0000 H   0  0  0  0  0  0  0  0  0  0  0  0
    4.2667    1.9810    0.0000 H   0  0  0  0  0  0  0  0  0  0  0  0
    3.3677    1.8021    0.0000 H   0  0  0  0  0  0  0  0  0  0  0  0
    3.1888    0.9031    0.0000 H   0  0  0  0  0  0  0  0  0  0  0  0
    3.1888   -0.1155    0.0000 H   0  0  0  0  0  0  0  0  0  0  0  0
    3.3677   -1.0146    0.0000 H   0  0  0  0  0  0  0  0  0  0  0  0
    4.2667   -1.1934    0.0000 H   0  0  0  0  0  0  0  0  0  0  0  0
    2.3010    0.3938    0.0000 H   0  0  0  0  0  0  0  0  0  0  0  0
    2.1245   -0.8983    0.0000 H   0  0  0  0  0  0  0  0  0  0  0  0
    2.6973   -1.1455    0.0000 H   0  0  0  0  0  0  0  0  0  0  0  0
    1.2161   -0.7987    0.0000 H   0  0  0  0  0  0  0  0  0  0  0  0
    1.6585   -1.1130    0.0000 H   0  0  0  0  0  0  0  0  0  0  0  0
    2.1548    1.8891    0.0000 H   0  0  0  0  0  0  0  0  0  0  0  0
    1.5817    1.8741    0.0000 H   0  0  0  0  0  0  0  0  0  0  0  0
    2.7691    1.9314    0.0000 H   0  0  0  0  0  0  0  0  0  0  0  0
    3.5215    1.2751    0.0000 H   0  0  0  0  0  0  0  0  0  0  0  0
   -0.6105   -0.1336    0.0000 H   0  0  0  0  0  0  0  0  0  0  0  0
   -0.1552   -0.7602    0.0000 H   0  0  0  0  0  0  0  0  0  0  0  0
    0.3355    1.6211    0.0000 H   0  0  0  0  0  0  0  0  0  0  0  0
   -0.5053    2.1150    0.0000 H   0  0  0  0  0  0  0  0  0  0  0  0
   -1.0280    1.8904    0.0000 H   0  0  0  0  0  0  0  0  0  0  0  0
  1  2  1  0  0  0  0
  2  3  1  0  0  0  0
  2  4  1  0  0  0  0
  2  5  1  0  0  0  0
  5  6  1  0  0  0  0
  6  7  1  0  0  0  0
  7  8  1  0  0  0  0
  8  9  1  0  0  0  0
  9 10  1  0  0  0  0
  5 10  1  0  0  0  0
  8 11  1  0  0  0  0
 11 12  1  0  0  0  0
 12 13  1  0  0  0  0
 13 14  1  0  0  0  0
 14 15  1  0  0  0  0
 13 16  1  0  0  0  0
  8 16  1  0  0  0  0
  1 17  1  0  0  0  0
  1 18  1  0  0  0  0
  1 19  1  0  0  0  0
  3 20  1  0  0  0  0
  3 21  1  0  0  0  0
  3 22  1  0  0  0  0
  4 23  1  0  0  0  0
  4 24  1  0  0  0  0
  4 25  1  0  0  0  0
  5 26  1  0  0  0  0
  6 27  1  0  0  0  0
  6 28  1  0  0  0  0
  7 29  1  0  0  0  0
  7 30  1  0  0  0  0
  9 31  1  0  0  0  0
  9 32  1  0  0  0  0
 10 33  1  0  0  0  0
 10 34  1  0  0  0  0
 12 35  1  0  0  0  0
 12 36  1  0  0  0  0
 13 37  1  0  0  0  0
 14 38  1  0  0  0  0
 14 39  1  0  0  0  0
M  END
> <id>
4160

> <casrn>
118135-28-7

> <smiles (First)>


> <Molecular weight>
246.77352905273438

> <name>
unnamed [118135-28-7]

> <Outcome>
0

> <Molecule (RDKit Mol) (InChI Code)>
InChI=1S/C13H23ClO2/c1-12(2,3)10-4-6-13(7-5-10)15-9-11(8-14)16-13/h10-11H,4-9H2,1-3H3

> <reference>
ECHA

> <molecule_form>
A

$$$$

  Mrv1812 01171911372D          

 22 23  0  0  0  0            999 V2000
    1.4289   -2.4750    0.0000 N   0  0  0  0  0  0  0  0  0  0  0  0
    1.4289   -1.6500    0.0000 C   0  0  0  0  0  0  0  0  0  0  0  0
    0.7145   -1.2375    0.0000 C   0  0  0  0  0  0  0  0  0  0  0  0
    0.7145   -0.4125    0.0000 C   0  0  0  0  0  0  0  0  0  0  0  0
    1.4289   -0.0000    0.0000 C   0  0  0  0  0  0  0  0  0  0  0  0
    2.1434   -0.4125    0.0000 C   0  0  0  0  0  0  0  0  0  0  0  0
    2.8579   -0.0000    0.0000 C   0  0  0  0  0  0  0  0  0  0  0  0
    2.8579    0.8250    0.0000 N   0  0  0  0  0  0  0  0  0  0  0  0
    3.5724   -0.4125    0.0000 C   0  0  0  0  0  0  0  0  0  0  0  0
    3.5724   -1.2375    0.0000 C   0  0  0  0  0  0  0  0  0  0  0  0
    2.8579   -1.6500    0.0000 C   0  0  0  0  0  0  0  0  0  0  0  0
    2.1434   -1.2375    0.0000 C   0  0  0  0  0  0  0  0  0  0  0  0
    0.7145   -2.8875    0.0000 H   0  0  0  0  0  0  0  0  0  0  0  0
    2.1434   -2.8875    0.0000 H   0  0  0  0  0  0  0  0  0  0  0  0
    0.0000   -1.6500    0.0000 H   0  0  0  0  0  0  0  0  0  0  0  0
    0.0000   -0.0000    0.0000 H   0  0  0  0  0  0  0  0  0  0  0  0
    1.4289    0.8250    0.0000 H   0  0  0  0  0  0  0  0  0  0  0  0
    3.5724    1.2375    0.0000 H   0  0  0  0  0  0  0  0  0  0  0  0
    2.1434    1.2375    0.0000 H   0  0  0  0  0  0  0  0  0  0  0  0
    4.2868   -0.0000    0.0000 H   0  0  0  0  0  0  0  0  0  0  0  0
    4.2868   -1.6500    0.0000 H   0  0  0  0  0  0  0  0  0  0  0  0
    2.8579   -2.4750    0.0000 H   0  0  0  0  0  0  0  0  0  0  0  0
  1  2  1  0  0  0  0
  2  3  4  0  0  0  0
  3  4  4  0  0  0  0
  4  5  4  0  0  0  0
  5  6  4  0  0  0  0
  6  7  4  0  0  0  0
  7  8  1  0  0  0  0
  7  9  4  0  0  0  0
  9 10  4  0  0  0  0
 10 11  4  0  0  0  0
 11 12  4  0  0  0  0
  2 12  4  0  0  0  0
  6 12  4  0  0  0  0
  1 13  1  0  0  0  0
  1 14  1  0  0  0  0
  3 15  1  0  0  0  0
  4 16  1  0  0  0  0
  5 17  1  0  0  0  0
  8 18  1  0  0  0  0
  8 19  1  0  0  0  0
  9 20  1  0  0  0  0
 10 21  1  0  0  0  0
 11 22  1  0  0  0  0
M  END
> <id>
3501

> <casrn>
2243-62-1

> <smiles (First)>


> <Molecular weight>
158.19979858398438

> <name>
naphthalene-1,5-diamine

> <Outcome>
0

> <Molecule (RDKit Mol) (InChI Code)>
InChI=1S/C10H10N2/c11-9-5-1-3-7-8(9)4-2-6-10(7)12/h1-6H,11-12H2

> <reference>
ECHA

> <molecule_form>
A

$$$$

  Mrv1812 01171911372D          

 20 20  0  0  0  0            999 V2000
   -0.5626    2.9849    0.0000 O   0  0  0  0  0  0  0  0  0  0  0  0
    0.1518    2.5724    0.0000 C   0  0  0  0  0  0  0  0  0  0  0  0
    0.8663    2.1599    0.0000 N   0  0  0  0  0  0  0  0  0  0  0  0
    0.8663    1.3349    0.0000 C   0  0  0  0  0  0  0  0  0  0  0  0
    1.5808    0.9224    0.0000 C   0  0  0  0  0  0  0  0  0  0  0  0
    1.5808    0.0974    0.0000 C   0  0  0  0  0  0  0  0  0  0  0  0
    0.8663   -0.3151    0.0000 C   0  0  0  0  0  0  0  0  0  0  0  0
    0.1518    0.0974    0.0000 C   0  0  0  0  0  0  0  0  0  0  0  0
    0.1518    0.9224    0.0000 C   0  0  0  0  0  0  0  0  0  0  0  0
    0.1518    1.7474    0.0000 H   0  0  0  0  0  0  0  0  0  0  0  0
    2.4044    0.9704    0.0000 H   0  0  0  0  0  0  0  0  0  0  0  0
    2.0341    1.6117    0.0000 H   0  0  0  0  0  0  0  0  0  0  0  0
    2.0341   -0.5919    0.0000 H   0  0  0  0  0  0  0  0  0  0  0  0
    2.4044    0.0494    0.0000 H   0  0  0  0  0  0  0  0  0  0  0  0
    0.4961   -1.0523    0.0000 H   0  0  0  0  0  0  0  0  0  0  0  0
    1.2366   -1.0523    0.0000 H   0  0  0  0  0  0  0  0  0  0  0  0
   -0.6718    0.0494    0.0000 H   0  0  0  0  0  0  0  0  0  0  0  0
   -0.3015   -0.5919    0.0000 H   0  0  0  0  0  0  0  0  0  0  0  0
   -0.6234    1.2046    0.0000 H   0  0  0  0  0  0  0  0  0  0  0  0
   -0.6234    0.6403    0.0000 H   0  0  0  0  0  0  0  0  0  0  0  0
  1  2  2  0  0  0  0
  2  3  2  0  0  0  0
  3  4  1  0  0  0  0
  4  5  1  0  0  0  0
  5  6  1  0  0  0  0
  6  7  1  0  0  0  0
  7  8  1  0  0  0  0
  8  9  1  0  0  0  0
  4  9  1  0  0  0  0
  4 10  1  0  0  0  0
  5 11  1  0  0  0  0
  5 12  1  0  0  0  0
  6 13  1  0  0  0  0
  6 14  1  0  0  0  0
  7 15  1  0  0  0  0
  7 16  1  0  0  0  0
  8 17  1  0  0  0  0
  8 18  1  0  0  0  0
  9 19  1  0  0  0  0
  9 20  1  0  0  0  0
M  END
> <id>
3373

> <casrn>
3173-53-3

> <smiles (First)>


> <Molecular weight>
125.16834259033203

> <name>
isocyanatocyclohexane

> <Outcome>
1

> <Molecule (RDKit Mol) (InChI Code)>
InChI=1S/C7H11NO/c9-6-8-7-4-2-1-3-5-7/h7H,1-5H2

> <reference>
ECHA

> <molecule_form>
V

$$$$

  Mrv1812 01171911372D          

 20 19  0  0  0  0            999 V2000
    2.9739   -2.2960    0.0000 C   0  0  0  0  0  0  0  0  0  0  0  0
    2.5614   -1.5815    0.0000 C   0  0  0  0  0  0  0  0  0  0  0  0
    3.2758   -1.1690    0.0000 C   0  0  0  0  0  0  0  0  0  0  0  0
    1.8469   -1.9940    0.0000 C   0  0  0  0  0  0  0  0  0  0  0  0
    2.1489   -0.8671    0.0000 O   0  0  0  0  0  0  0  0  0  0  0  0
    1.3239   -0.8671    0.0000 C   0  0  0  0  0  0  0  0  0  0  0  0
    0.9114   -1.5815    0.0000 O   0  0  0  0  0  0  0  0  0  0  0  0
    0.9114   -0.1526    0.0000 C   0  0  0  0  0  0  0  0  0  0  0  0
    0.0864   -0.1526    0.0000 Cl  0  0  0  0  0  0  0  0  0  0  0  0
    2.2594   -2.7085    0.0000 H   0  0  0  0  0  0  0  0  0  0  0  0
    3.3864   -3.0105    0.0000 H   0  0  0  0  0  0  0  0  0  0  0  0
    3.6883   -1.8835    0.0000 H   0  0  0  0  0  0  0  0  0  0  0  0
    4.0938   -1.0613    0.0000 H   0  0  0  0  0  0  0  0  0  0  0  0
    3.4893   -0.3721    0.0000 H   0  0  0  0  0  0  0  0  0  0  0  0
    2.6213   -0.6668    0.0000 H   0  0  0  0  0  0  0  0  0  0  0  0
    1.7392   -1.1761    0.0000 H   0  0  0  0  0  0  0  0  0  0  0  0
    1.0500   -1.7805    0.0000 H   0  0  0  0  0  0  0  0  0  0  0  0
    1.3447   -2.6485    0.0000 H   0  0  0  0  0  0  0  0  0  0  0  0
    1.6006    0.3008    0.0000 H   0  0  0  0  0  0  0  0  0  0  0  0
    0.9593    0.6710    0.0000 H   0  0  0  0  0  0  0  0  0  0  0  0
  1  2  1  0  0  0  0
  2  3  1  0  0  0  0
  2  4  1  0  0  0  0
  2  5  1  0  0  0  0
  5  6  1  0  0  0  0
  6  7  2  0  0  0  0
  6  8  1  0  0  0  0
  8  9  1  0  0  0  0
  1 10  1  0  0  0  0
  1 11  1  0  0  0  0
  1 12  1  0  0  0  0
  3 13  1  0  0  0  0
  3 14  1  0  0  0  0
  3 15  1  0  0  0  0
  4 16  1  0  0  0  0
  4 17  1  0  0  0  0
  4 18  1  0  0  0  0
  8 19  1  0  0  0  0
  8 20  1  0  0  0  0
M  END
> <id>
3911

> <casrn>
107-59-5

> <smiles (First)>


> <Molecular weight>
150.6033477783203

> <name>
tert-butyl 2-chloroacetate

> <Outcome>
1

> <Molecule (RDKit Mol) (InChI Code)>
InChI=1S/C6H11ClO2/c1-6(2,3)9-5(8)4-7/h4H2,1-3H3

> <reference>
ECHA

> <molecule_form>
V

$$$$

  Mrv1812 01171911372D          

 27 27  0  0  0  0            999 V2000
   -0.7362    3.7563    0.0000 C   0  0  0  0  0  0  0  0  0  0  0  0
   -0.0217    3.3438    0.0000 N   0  0  0  0  0  0  0  0  0  0  0  0
   -0.0217    2.5188    0.0000 C   0  0  0  0  0  0  0  0  0  0  0  0
   -0.7362    2.1063    0.0000 C   0  0  0  0  0  0  0  0  0  0  0  0
    0.6928    2.1063    0.0000 C   0  0  0  0  0  0  0  0  0  0  0  0
    1.4072    2.5188    0.0000 O   0  0  0  0  0  0  0  0  0  0  0  0
    0.6928    1.2813    0.0000 C   0  0  0  0  0  0  0  0  0  0  0  0
    1.4072    0.8688    0.0000 C   0  0  0  0  0  0  0  0  0  0  0  0
    1.4072    0.0438    0.0000 C   0  0  0  0  0  0  0  0  0  0  0  0
    0.6928   -0.3687    0.0000 C   0  0  0  0  0  0  0  0  0  0  0  0
   -0.0217    0.0438    0.0000 C   0  0  0  0  0  0  0  0  0  0  0  0
   -0.0217    0.8688    0.0000 C   0  0  0  0  0  0  0  0  0  0  0  0
   -0.3237    4.4708    0.0000 H   0  0  0  0  0  0  0  0  0  0  0  0
   -1.4507    4.1688    0.0000 H   0  0  0  0  0  0  0  0  0  0  0  0
   -1.1487    3.0418    0.0000 H   0  0  0  0  0  0  0  0  0  0  0  0
    0.6928    3.7563    0.0000 H   0  0  0  0  0  0  0  0  0  0  0  0
   -0.7362    2.9313    0.0000 H   0  0  0  0  0  0  0  0  0  0  0  0
   -1.5331    2.3198    0.0000 H   0  0  0  0  0  0  0  0  0  0  0  0
   -1.1487    1.3918    0.0000 H   0  0  0  0  0  0  0  0  0  0  0  0
   -0.1528    1.5229    0.0000 H   0  0  0  0  0  0  0  0  0  0  0  0
    0.6928    2.9313    0.0000 H   0  0  0  0  0  0  0  0  0  0  0  0
    2.2322    2.5188    0.0000 H   0  0  0  0  0  0  0  0  0  0  0  0
    2.1217    1.2813    0.0000 H   0  0  0  0  0  0  0  0  0  0  0  0
    2.1217   -0.3687    0.0000 H   0  0  0  0  0  0  0  0  0  0  0  0
    0.6928   -1.1937    0.0000 H   0  0  0  0  0  0  0  0  0  0  0  0
   -0.7362   -0.3687    0.0000 H   0  0  0  0  0  0  0  0  0  0  0  0
   -0.8427    0.7873    0.0000 H   0  0  0  0  0  0  0  0  0  0  0  0
  1  2  1  0  0  0  0
  2  3  1  0  0  0  0
  3  4  1  0  0  0  0
  3  5  1  0  0  0  0
  5  6  1  0  0  0  0
  5  7  1  0  0  0  0
  7  8  4  0  0  0  0
  8  9  4  0  0  0  0
  9 10  4  0  0  0  0
 10 11  4  0  0  0  0
 11 12  4  0  0  0  0
  7 12  4  0  0  0  0
  1 13  1  0  0  0  0
  1 14  1  0  0  0  0
  1 15  1  0  0  0  0
  2 16  1  0  0  0  0
  3 17  1  0  0  0  0
  4 18  1  0  0  0  0
  4 19  1  0  0  0  0
  4 20  1  0  0  0  0
  5 21  1  0  0  0  0
  6 22  1  0  0  0  0
  8 23  1  0  0  0  0
  9 24  1  0  0  0  0
 10 25  1  0  0  0  0
 11 26  1  0  0  0  0
 12 27  1  0  0  0  0
M  END
> <id>
1348; 1350

> <casrn>
299-42-3

> <smiles (First)>


> <Molecular weight>
165.23220825195312

> <name>
2-(methylamino)-1-phenylpropan-1-ol

> <Outcome>
0

> <Molecule (RDKit Mol) (InChI Code)>
InChI=1S/C10H15NO/c1-8(11-2)10(12)9-6-4-3-5-7-9/h3-8,10-12H,1-2H3

> <reference>
ECHA

> <molecule_form>
A

$$$$

  Mrv1812 01171911372D          

 19 18  0  0  0  0            999 V2000
    1.2531    2.2573    0.0000 C   0  0  0  0  0  0  0  0  0  0  0  0
    0.8406    1.5428    0.0000 C   0  0  0  0  0  0  0  0  0  0  0  0
    0.0156    1.5428    0.0000 C   0  0  0  0  0  0  0  0  0  0  0  0
    1.2531    0.8283    0.0000 C   0  0  0  0  0  0  0  0  0  0  0  0
    2.0781    0.8283    0.0000 N   0  0  0  0  0  0  0  0  0  0  0  0
    0.8406    0.1139    0.0000 C   0  0  0  0  0  0  0  0  0  0  0  0
    1.2531   -0.6006    0.0000 O   0  0  0  0  0  0  0  0  0  0  0  0
    0.0156    0.1139    0.0000 O   0  0  0  0  0  0  0  0  0  0  0  0
    1.9676    1.8448    0.0000 H   0  0  0  0  0  0  0  0  0  0  0  0
    1.6656    2.9718    0.0000 H   0  0  0  0  0  0  0  0  0  0  0  0
    0.5386    2.6698    0.0000 H   0  0  0  0  0  0  0  0  0  0  0  0
    0.4281    2.2573    0.0000 H   0  0  0  0  0  0  0  0  0  0  0  0
   -0.5678    2.1262    0.0000 H   0  0  0  0  0  0  0  0  0  0  0  0
   -0.6989    1.1303    0.0000 H   0  0  0  0  0  0  0  0  0  0  0  0
    0.2291    0.7459    0.0000 H   0  0  0  0  0  0  0  0  0  0  0  0
    1.6656    1.5428    0.0000 H   0  0  0  0  0  0  0  0  0  0  0  0
    2.4484    0.0911    0.0000 H   0  0  0  0  0  0  0  0  0  0  0  0
    2.9017    0.8763    0.0000 H   0  0  0  0  0  0  0  0  0  0  0  0
   -0.6546   -0.3672    0.0000 H   0  0  0  0  0  0  0  0  0  0  0  0
  1  2  1  0  0  0  0
  2  3  1  0  0  0  0
  2  4  1  0  0  0  0
  4  5  1  0  0  0  0
  4  6  1  0  0  0  0
  6  7  2  0  0  0  0
  6  8  1  0  0  0  0
  1  9  1  0  0  0  0
  1 10  1  0  0  0  0
  1 11  1  0  0  0  0
  2 12  1  0  0  0  0
  3 13  1  0  0  0  0
  3 14  1  0  0  0  0
  3 15  1  0  0  0  0
  4 16  1  0  0  0  0
  5 17  1  0  0  0  0
  5 18  1  0  0  0  0
  8 19  1  0  0  0  0
M  END
> <id>
182

> <casrn>
72-18-4

> <smiles (First)>


> <Molecular weight>
117.1463394165039

> <name>
(2S)-2-amino-3-methylbutanoic acid

> <Outcome>
0

> <Molecule (RDKit Mol) (InChI Code)>
InChI=1S/C5H11NO2/c1-3(2)4(6)5(7)8/h3-4H,6H2,1-2H3,(H,7,8)

> <reference>
ECHA

> <molecule_form>
A

$$$$

  Mrv1812 01171911372D          

 30 30  0  0  0  0            999 V2000
   -0.7220    2.1155    0.0000 C   0  0  0  0  0  0  0  0  0  0  0  0
   -0.0075    2.5280    0.0000 C   0  0  0  0  0  0  0  0  0  0  0  0
    0.7070    2.1155    0.0000 C   0  0  0  0  0  0  0  0  0  0  0  0
    0.7070    1.2905    0.0000 C   0  0  0  0  0  0  0  0  0  0  0  0
    1.4214    0.8780    0.0000 C   0  0  0  0  0  0  0  0  0  0  0  0
    1.4214    0.0530    0.0000 C   0  0  0  0  0  0  0  0  0  0  0  0
    0.7070   -0.3595    0.0000 C   0  0  0  0  0  0  0  0  0  0  0  0
    0.7070   -1.1845    0.0000 C   0  0  0  0  0  0  0  0  0  0  0  0
   -0.0075    0.0530    0.0000 C   0  0  0  0  0  0  0  0  0  0  0  0
   -0.0075    0.8780    0.0000 C   0  0  0  0  0  0  0  0  0  0  0  0
   -0.0075    3.3530    0.0000 C   0  0  0  0  0  0  0  0  0  0  0  0
   -0.7220    3.7655    0.0000 C   0  0  0  0  0  0  0  0  0  0  0  0
   -0.7220    4.5905    0.0000 C   0  0  0  0  0  0  0  0  0  0  0  0
   -1.4364    5.0030    0.0000 O   0  0  0  0  0  0  0  0  0  0  0  0
   -1.1345    2.8300    0.0000 H   0  0  0  0  0  0  0  0  0  0  0  0
   -1.4364    1.7030    0.0000 H   0  0  0  0  0  0  0  0  0  0  0  0
   -0.3095    1.4010    0.0000 H   0  0  0  0  0  0  0  0  0  0  0  0
    1.4214    2.5280    0.0000 H   0  0  0  0  0  0  0  0  0  0  0  0
    2.1359    1.2905    0.0000 H   0  0  0  0  0  0  0  0  0  0  0  0
    2.1359   -0.3595    0.0000 H   0  0  0  0  0  0  0  0  0  0  0  0
   -0.1180   -1.1845    0.0000 H   0  0  0  0  0  0  0  0  0  0  0  0
    0.7070   -2.0095    0.0000 H   0  0  0  0  0  0  0  0  0  0  0  0
    1.5320   -1.1845    0.0000 H   0  0  0  0  0  0  0  0  0  0  0  0
   -0.7220   -0.3595    0.0000 H   0  0  0  0  0  0  0  0  0  0  0  0
   -0.8044    0.6645    0.0000 H   0  0  0  0  0  0  0  0  0  0  0  0
    0.8161    3.4010    0.0000 H   0  0  0  0  0  0  0  0  0  0  0  0
    0.4458    4.0423    0.0000 H   0  0  0  0  0  0  0  0  0  0  0  0
   -1.5456    3.7175    0.0000 H   0  0  0  0  0  0  0  0  0  0  0  0
   -1.1753    3.0762    0.0000 H   0  0  0  0  0  0  0  0  0  0  0  0
   -0.0075    5.0030    0.0000 H   0  0  0  0  0  0  0  0  0  0  0  0
  1  2  1  0  0  0  0
  2  3  2  0  0  0  0
  3  4  1  4  0  0  0
  4  5  4  0  0  0  0
  5  6  4  0  0  0  0
  6  7  4  0  0  0  0
  7  8  1  0  0  0  0
  7  9  4  0  0  0  0
  9 10  4  0  0  0  0
  4 10  4  0  0  0  0
  2 11  1  0  0  0  0
 11 12  1  0  0  0  0
 12 13  1  0  0  0  0
 13 14  2  0  0  0  0
  1 15  1  0  0  0  0
  1 16  1  0  0  0  0
  1 17  1  0  0  0  0
  3 18  1  0  0  0  0
  5 19  1  0  0  0  0
  6 20  1  0  0  0  0
  8 21  1  0  0  0  0
  8 22  1  0  0  0  0
  8 23  1  0  0  0  0
  9 24  1  0  0  0  0
 10 25  1  0  0  0  0
 11 26  1  0  0  0  0
 11 27  1  0  0  0  0
 12 28  1  0  0  0  0
 12 29  1  0  0  0  0
 13 30  1  0  0  0  0
M  END
> <id>
4169

> <casrn>
1226911-69-8

> <smiles (First)>


> <Molecular weight>
188.2655487060547

> <name>
unnamed [1226911-69-8]

> <Outcome>
0

> <Molecule (RDKit Mol) (InChI Code)>
InChI=1S/C13H16O/c1-11-5-7-13(8-6-11)10-12(2)4-3-9-14/h5-10H,3-4H2,1-2H3

> <reference>
ECHA

> <molecule_form>
A

$$$$

  Mrv1812 01171911372D          

 17 17  0  0  0  0            999 V2000
    1.8492    2.2324    0.0000 O   0  0  0  0  0  0  0  0  0  0  0  0
    1.8492    1.4074    0.0000 C   0  0  0  0  0  0  0  0  0  0  0  0
    1.1347    0.9949    0.0000 N   0  0  0  0  0  0  0  0  0  0  0  0
    1.1347    0.1699    0.0000 C   0  0  0  0  0  0  0  0  0  0  0  0
    0.4203   -0.2426    0.0000 C   0  0  0  0  0  0  0  0  0  0  0  0
   -0.2942    0.1699    0.0000 O   0  0  0  0  0  0  0  0  0  0  0  0
   -0.2942    0.9949    0.0000 C   0  0  0  0  0  0  0  0  0  0  0  0
    0.4203    1.4074    0.0000 C   0  0  0  0  0  0  0  0  0  0  0  0
    2.5637    0.9949    0.0000 H   0  0  0  0  0  0  0  0  0  0  0  0
    1.5881   -0.5194    0.0000 H   0  0  0  0  0  0  0  0  0  0  0  0
    1.9584    0.1219    0.0000 H   0  0  0  0  0  0  0  0  0  0  0  0
    0.0500   -0.9798    0.0000 H   0  0  0  0  0  0  0  0  0  0  0  0
    0.7905   -0.9798    0.0000 H   0  0  0  0  0  0  0  0  0  0  0  0
   -0.7475    1.6842    0.0000 H   0  0  0  0  0  0  0  0  0  0  0  0
   -1.1178    1.0429    0.0000 H   0  0  0  0  0  0  0  0  0  0  0  0
    0.7905    2.1446    0.0000 H   0  0  0  0  0  0  0  0  0  0  0  0
    0.0500    2.1446    0.0000 H   0  0  0  0  0  0  0  0  0  0  0  0
  1  2  2  0  0  0  0
  2  3  1  0  0  0  0
  3  4  1  0  0  0  0
  4  5  1  0  0  0  0
  5  6  1  0  0  0  0
  6  7  1  0  0  0  0
  7  8  1  0  0  0  0
  3  8  1  0  0  0  0
  2  9  1  0  0  0  0
  4 10  1  0  0  0  0
  4 11  1  0  0  0  0
  5 12  1  0  0  0  0
  5 13  1  0  0  0  0
  7 14  1  0  0  0  0
  7 15  1  0  0  0  0
  8 16  1  0  0  0  0
  8 17  1  0  0  0  0
M  END
> <id>
3498

> <casrn>
4394-85-8

> <smiles (First)>


> <Molecular weight>
115.13046264648438

> <name>
morpholine-4-carbaldehyde

> <Outcome>
0

> <Molecule (RDKit Mol) (InChI Code)>
InChI=1S/C5H9NO2/c7-5-6-1-3-8-4-2-6/h5H,1-4H2

> <reference>
ECHA

> <molecule_form>
A

$$$$

  Mrv1812 01171911372D          

  9  8  0  0  0  0            999 V2000
    2.5936   -0.9862    0.0000 C   0  0  0  0  0  0  0  0  0  0  0  0
    2.1811   -0.2717    0.0000 O   0  0  0  0  0  0  0  0  0  0  0  0
    1.3561   -0.2717    0.0000 C   0  0  0  0  0  0  0  0  0  0  0  0
    1.8791   -1.3987    0.0000 H   0  0  0  0  0  0  0  0  0  0  0  0
    3.0061   -1.7007    0.0000 H   0  0  0  0  0  0  0  0  0  0  0  0
    3.3081   -0.5737    0.0000 H   0  0  0  0  0  0  0  0  0  0  0  0
    1.3561    0.5533    0.0000 H   0  0  0  0  0  0  0  0  0  0  0  0
    0.5311   -0.2717    0.0000 H   0  0  0  0  0  0  0  0  0  0  0  0
    1.3561   -1.0967    0.0000 H   0  0  0  0  0  0  0  0  0  0  0  0
  1  2  1  0  0  0  0
  2  3  1  0  0  0  0
  1  4  1  0  0  0  0
  1  5  1  0  0  0  0
  1  6  1  0  0  0  0
  3  7  1  0  0  0  0
  3  8  1  0  0  0  0
  3  9  1  0  0  0  0
M  END
> <id>
3441; 3440; 3439

> <casrn>
115-10-6

> <smiles (First)>


> <Molecular weight>
46.06843948364258

> <name>
methoxymethane

> <Outcome>
0

> <Molecule (RDKit Mol) (InChI Code)>
InChI=1S/C2H6O/c1-3-2/h1-2H3

> <reference>
ECHA

> <molecule_form>
G

$$$$

  Mrv1812 01171911372D          

 19 19  0  0  0  0            999 V2000
   -0.7129    3.7135    0.0000 O   0  0  0  0  0  0  0  0  0  0  0  0
    0.0016    3.3010    0.0000 C   0  0  0  0  0  0  0  0  0  0  0  0
    0.7161    3.7135    0.0000 O   0  0  0  0  0  0  0  0  0  0  0  0
    0.0016    2.4760    0.0000 C   0  0  0  0  0  0  0  0  0  0  0  0
    0.7161    2.0635    0.0000 O   0  0  0  0  0  0  0  0  0  0  0  0
    0.7161    1.2385    0.0000 C   0  0  0  0  0  0  0  0  0  0  0  0
    1.4305    0.8260    0.0000 C   0  0  0  0  0  0  0  0  0  0  0  0
    1.4305    0.0010    0.0000 C   0  0  0  0  0  0  0  0  0  0  0  0
    0.7161   -0.4115    0.0000 C   0  0  0  0  0  0  0  0  0  0  0  0
    0.0016    0.0010    0.0000 C   0  0  0  0  0  0  0  0  0  0  0  0
    0.0016    0.8260    0.0000 C   0  0  0  0  0  0  0  0  0  0  0  0
    1.4305    3.3010    0.0000 H   0  0  0  0  0  0  0  0  0  0  0  0
   -0.8220    2.4280    0.0000 H   0  0  0  0  0  0  0  0  0  0  0  0
   -0.4517    1.7867    0.0000 H   0  0  0  0  0  0  0  0  0  0  0  0
    2.1450    1.2385    0.0000 H   0  0  0  0  0  0  0  0  0  0  0  0
    2.1450   -0.4115    0.0000 H   0  0  0  0  0  0  0  0  0  0  0  0
    0.7161   -1.2365    0.0000 H   0  0  0  0  0  0  0  0  0  0  0  0
   -0.7129   -0.4115    0.0000 H   0  0  0  0  0  0  0  0  0  0  0  0
   -0.7129    1.2385    0.0000 H   0  0  0  0  0  0  0  0  0  0  0  0
  1  2  2  0  0  0  0
  2  3  1  0  0  0  0
  2  4  1  0  0  0  0
  4  5  1  0  0  0  0
  5  6  1  0  0  0  0
  6  7  4  0  0  0  0
  7  8  4  0  0  0  0
  8  9  4  0  0  0  0
  9 10  4  0  0  0  0
 10 11  4  0  0  0  0
  6 11  4  0  0  0  0
  3 12  1  0  0  0  0
  4 13  1  0  0  0  0
  4 14  1  0  0  0  0
  7 15  1  0  0  0  0
  8 16  1  0  0  0  0
  9 17  1  0  0  0  0
 10 18  1  0  0  0  0
 11 19  1  0  0  0  0
M  END
> <id>
3850

> <casrn>
3598-16-1

> <smiles (First)>


> <Molecular weight>
151.13938903808594

> <name>
sodium 2-phenoxyacetate

> <Outcome>
0

> <Molecule (RDKit Mol) (InChI Code)>
InChI=1S/C8H8O3/c9-8(10)6-11-7-4-2-1-3-5-7/h1-5H,6H2,(H,9,10)

> <reference>
ECHA

> <molecule_form>
A

$$$$

  Mrv1812 01171911372D          

  3  2  0  0  0  0            999 V2000
    0.8250    0.0000    0.0000 C   0  0  0  0  0  0  0  0  0  0  0  0
    0.0000   -0.0000    0.0000 N   0  0  0  0  0  0  0  0  0  0  0  0
    1.6500   -0.0000    0.0000 H   0  0  0  0  0  0  0  0  0  0  0  0
  1  2  3  0  0  0  0
  1  3  1  0  0  0  0
M  END
> <id>
3216

> <casrn>
74-90-8

> <smiles (First)>


> <Molecular weight>
27.025339126586914

> <name>
formonitrile

> <Outcome>
1

> <Molecule (RDKit Mol) (InChI Code)>
InChI=1S/CHN/c1-2/h1H

> <reference>
ECHA

> <molecule_form>
G

$$$$

  Mrv1812 01171911372D          

 21 20  0  0  0  0            999 V2000
    2.5385    0.6265    0.0000 C   0  0  0  0  0  0  0  0  0  0  0  0
    1.8240    0.2140    0.0000 O   0  0  0  0  0  0  0  0  0  0  0  0
    1.1096    0.6265    0.0000 Si  0  0  0  0  0  0  0  0  0  0  0  0
    0.3951    1.0390    0.0000 O   0  0  0  0  0  0  0  0  0  0  0  0
   -0.3194    0.6265    0.0000 C   0  0  0  0  0  0  0  0  0  0  0  0
    1.5221    1.3410    0.0000 O   0  0  0  0  0  0  0  0  0  0  0  0
    1.1096    2.0555    0.0000 C   0  0  0  0  0  0  0  0  0  0  0  0
    0.6971   -0.0879    0.0000 O   0  0  0  0  0  0  0  0  0  0  0  0
   -0.1279   -0.0879    0.0000 C   0  0  0  0  0  0  0  0  0  0  0  0
    2.9510   -0.0879    0.0000 H   0  0  0  0  0  0  0  0  0  0  0  0
    3.2530    1.0390    0.0000 H   0  0  0  0  0  0  0  0  0  0  0  0
    2.1260    1.3410    0.0000 H   0  0  0  0  0  0  0  0  0  0  0  0
   -0.3733    1.4498    0.0000 H   0  0  0  0  0  0  0  0  0  0  0  0
   -1.0816    0.9422    0.0000 H   0  0  0  0  0  0  0  0  0  0  0  0
   -0.9397    0.0826    0.0000 H   0  0  0  0  0  0  0  0  0  0  0  0
    1.8240    2.4680    0.0000 H   0  0  0  0  0  0  0  0  0  0  0  0
    0.6971    2.7699    0.0000 H   0  0  0  0  0  0  0  0  0  0  0  0
    0.3951    1.6430    0.0000 H   0  0  0  0  0  0  0  0  0  0  0  0
   -0.5057   -0.8214    0.0000 H   0  0  0  0  0  0  0  0  0  0  0  0
    0.0910   -0.8834    0.0000 H   0  0  0  0  0  0  0  0  0  0  0  0
    0.3743    0.5666    0.0000 H   0  0  0  0  0  0  0  0  0  0  0  0
  1  2  1  0  0  0  0
  2  3  1  0  0  0  0
  3  4  1  0  0  0  0
  4  5  1  0  0  0  0
  3  6  1  0  0  0  0
  6  7  1  0  0  0  0
  3  8  1  0  0  0  0
  8  9  1  0  0  0  0
  1 10  1  0  0  0  0
  1 11  1  0  0  0  0
  1 12  1  0  0  0  0
  5 13  1  0  0  0  0
  5 14  1  0  0  0  0
  5 15  1  0  0  0  0
  7 16  1  0  0  0  0
  7 17  1  0  0  0  0
  7 18  1  0  0  0  0
  9 19  1  0  0  0  0
  9 20  1  0  0  0  0
  9 21  1  0  0  0  0
M  END
> <id>
3978

> <casrn>
681-84-5

> <smiles (First)>


> <Molecular weight>
152.22117614746094

> <name>
tetramethyl silicate

> <Outcome>
1

> <Molecule (RDKit Mol) (InChI Code)>
InChI=1S/C4H12O4Si/c1-5-9(6-2,7-3)8-4/h1-4H3

> <reference>
ECHA

> <molecule_form>
V

$$$$

  Mrv1812 01171911372D          

 18 18  0  0  0  0            999 V2000
   -0.7145    2.8875    0.0000 O   0  0  0  0  0  0  0  0  0  0  0  0
   -0.0000    2.4750    0.0000 C   0  0  0  0  0  0  0  0  0  0  0  0
    0.7145    2.0625    0.0000 N   0  0  0  0  0  0  0  0  0  0  0  0
    0.7145    1.2375    0.0000 C   0  0  0  0  0  0  0  0  0  0  0  0
    1.4289    0.8250    0.0000 C   0  0  0  0  0  0  0  0  0  0  0  0
    1.4289   -0.0000    0.0000 C   0  0  0  0  0  0  0  0  0  0  0  0
    0.7145   -0.4125    0.0000 C   0  0  0  0  0  0  0  0  0  0  0  0
    0.7145   -1.2375    0.0000 O   0  0  0  0  0  0  0  0  0  0  0  0
    1.4289   -1.6500    0.0000 C   0  0  0  0  0  0  0  0  0  0  0  0
    2.1434   -2.0625    0.0000 F   0  0  0  0  0  0  0  0  0  0  0  0
    1.0164   -2.3645    0.0000 F   0  0  0  0  0  0  0  0  0  0  0  0
    1.8414   -0.9355    0.0000 F   0  0  0  0  0  0  0  0  0  0  0  0
   -0.0000    0.0000    0.0000 C   0  0  0  0  0  0  0  0  0  0  0  0
   -0.0000    0.8250    0.0000 C   0  0  0  0  0  0  0  0  0  0  0  0
    2.1434    1.2375    0.0000 H   0  0  0  0  0  0  0  0  0  0  0  0
    2.1434   -0.4125    0.0000 H   0  0  0  0  0  0  0  0  0  0  0  0
   -0.7145   -0.4125    0.0000 H   0  0  0  0  0  0  0  0  0  0  0  0
   -0.7145    1.2375    0.0000 H   0  0  0  0  0  0  0  0  0  0  0  0
  1  2  2  0  0  0  0
  2  3  2  0  0  0  0
  3  4  1  0  0  0  0
  4  5  4  0  0  0  0
  5  6  4  0  0  0  0
  6  7  4  0  0  0  0
  7  8  1  0  0  0  0
  8  9  1  0  0  0  0
  9 10  1  0  0  0  0
  9 11  1  0  0  0  0
  9 12  1  0  0  0  0
  7 13  4  0  0  0  0
 13 14  4  0  0  0  0
  4 14  4  0  0  0  0
  5 15  1  0  0  0  0
  6 16  1  0  0  0  0
 13 17  1  0  0  0  0
 14 18  1  0  0  0  0
M  END
> <id>
1174

> <casrn>
35037-73-1

> <smiles (First)>


> <Molecular weight>
203.11807250976562

> <name>
1-isocyanato-4-(trifluoromethoxy)benzene

> <Outcome>
1

> <Molecule (RDKit Mol) (InChI Code)>
InChI=1S/C8H4F3NO2/c9-8(10,11)14-7-3-1-6(2-4-7)12-5-13/h1-4H

> <reference>
ECHA

> <molecule_form>
V

$$$$

  Mrv1812 01171911372D          

 25 24  0  0  0  0            999 V2000
    0.8070   -1.4045    0.0000 C   0  0  0  0  0  0  0  0  0  0  0  0
    1.2195   -2.1190    0.0000 C   0  0  0  0  0  0  0  0  0  0  0  0
    2.0445   -2.1190    0.0000 C   0  0  0  0  0  0  0  0  0  0  0  0
    2.4570   -2.8335    0.0000 C   0  0  0  0  0  0  0  0  0  0  0  0
    3.2820   -2.8335    0.0000 C   0  0  0  0  0  0  0  0  0  0  0  0
    3.6945   -3.5479    0.0000 C   0  0  0  0  0  0  0  0  0  0  0  0
    4.5195   -3.5479    0.0000 O   0  0  0  0  0  0  0  0  0  0  0  0
    3.6945   -2.1190    0.0000 C   0  0  0  0  0  0  0  0  0  0  0  0
    4.5195   -2.1190    0.0000 C   0  0  0  0  0  0  0  0  0  0  0  0
    1.5215   -0.9920    0.0000 H   0  0  0  0  0  0  0  0  0  0  0  0
    0.3945   -0.6900    0.0000 H   0  0  0  0  0  0  0  0  0  0  0  0
    0.0925   -1.8170    0.0000 H   0  0  0  0  0  0  0  0  0  0  0  0
    0.5302   -2.5723    0.0000 H   0  0  0  0  0  0  0  0  0  0  0  0
    1.1715   -2.9426    0.0000 H   0  0  0  0  0  0  0  0  0  0  0  0
    2.7338   -1.6656    0.0000 H   0  0  0  0  0  0  0  0  0  0  0  0
    2.0924   -1.2954    0.0000 H   0  0  0  0  0  0  0  0  0  0  0  0
    1.7677   -3.2868    0.0000 H   0  0  0  0  0  0  0  0  0  0  0  0
    2.4090   -3.6571    0.0000 H   0  0  0  0  0  0  0  0  0  0  0  0
    2.8695   -3.5479    0.0000 H   0  0  0  0  0  0  0  0  0  0  0  0
    3.6945   -4.3729    0.0000 H   0  0  0  0  0  0  0  0  0  0  0  0
    3.6465   -1.2954    0.0000 H   0  0  0  0  0  0  0  0  0  0  0  0
    3.0052   -1.6656    0.0000 H   0  0  0  0  0  0  0  0  0  0  0  0
    4.5195   -2.9440    0.0000 H   0  0  0  0  0  0  0  0  0  0  0  0
    5.3445   -2.1190    0.0000 H   0  0  0  0  0  0  0  0  0  0  0  0
    4.5195   -1.2940    0.0000 H   0  0  0  0  0  0  0  0  0  0  0  0
  1  2  1  0  0  0  0
  2  3  1  0  0  0  0
  3  4  1  0  0  0  0
  4  5  1  0  0  0  0
  5  6  1  0  0  0  0
  6  7  2  0  0  0  0
  5  8  1  0  0  0  0
  8  9  1  0  0  0  0
  1 10  1  0  0  0  0
  1 11  1  0  0  0  0
  1 12  1  0  0  0  0
  2 13  1  0  0  0  0
  2 14  1  0  0  0  0
  3 15  1  0  0  0  0
  3 16  1  0  0  0  0
  4 17  1  0  0  0  0
  4 18  1  0  0  0  0
  5 19  1  0  0  0  0
  6 20  1  0  0  0  0
  8 21  1  0  0  0  0
  8 22  1  0  0  0  0
  9 23  1  0  0  0  0
  9 24  1  0  0  0  0
  9 25  1  0  0  0  0
M  END
> <id>
1464

> <casrn>
123-05-7

> <smiles (First)>


> <Molecular weight>
128.2120361328125

> <name>
2-ethylhexanal

> <Outcome>
0

> <Molecule (RDKit Mol) (InChI Code)>
InChI=1S/C8H16O/c1-3-5-6-8(4-2)7-9/h7-8H,3-6H2,1-2H3

> <reference>
ECHA

> <molecule_form>
A

$$$$

  Mrv1812 01171911372D          

 17 17  0  0  0  0            999 V2000
    0.0097    2.4516    0.0000 C   0  0  0  0  0  0  0  0  0  0  0  0
    0.7241    2.0391    0.0000 O   0  0  0  0  0  0  0  0  0  0  0  0
    0.7241    1.2141    0.0000 C   0  0  0  0  0  0  0  0  0  0  0  0
    1.4386    0.8016    0.0000 C   0  0  0  0  0  0  0  0  0  0  0  0
    1.4386   -0.0234    0.0000 C   0  0  0  0  0  0  0  0  0  0  0  0
    0.7241   -0.4359    0.0000 C   0  0  0  0  0  0  0  0  0  0  0  0
    0.0097   -0.0234    0.0000 C   0  0  0  0  0  0  0  0  0  0  0  0
    0.0097    0.8016    0.0000 C   0  0  0  0  0  0  0  0  0  0  0  0
   -0.7048    1.2141    0.0000 O   0  0  0  0  0  0  0  0  0  0  0  0
    0.4222    3.1661    0.0000 H   0  0  0  0  0  0  0  0  0  0  0  0
   -0.7048    2.8641    0.0000 H   0  0  0  0  0  0  0  0  0  0  0  0
   -0.4028    1.7371    0.0000 H   0  0  0  0  0  0  0  0  0  0  0  0
    2.1531    1.2141    0.0000 H   0  0  0  0  0  0  0  0  0  0  0  0
    2.1531   -0.4359    0.0000 H   0  0  0  0  0  0  0  0  0  0  0  0
    0.7241   -1.2609    0.0000 H   0  0  0  0  0  0  0  0  0  0  0  0
   -0.7048   -0.4359    0.0000 H   0  0  0  0  0  0  0  0  0  0  0  0
   -1.5017    1.0006    0.0000 H   0  0  0  0  0  0  0  0  0  0  0  0
  1  2  1  0  0  0  0
  2  3  1  0  0  0  0
  3  4  4  0  0  0  0
  4  5  4  0  0  0  0
  5  6  4  0  0  0  0
  6  7  4  0  0  0  0
  7  8  4  0  0  0  0
  3  8  4  0  0  0  0
  8  9  1  0  0  0  0
  1 10  1  0  0  0  0
  1 11  1  0  0  0  0
  1 12  1  0  0  0  0
  4 13  1  0  0  0  0
  5 14  1  0  0  0  0
  6 15  1  0  0  0  0
  7 16  1  0  0  0  0
  9 17  1  0  0  0  0
M  END
> <id>
1503

> <casrn>
90-05-1

> <smiles (First)>


> <Molecular weight>
124.13722229003906

> <name>
2-methoxyphenol

> <Outcome>
1

> <Molecule (RDKit Mol) (InChI Code)>
InChI=1S/C7H8O2/c1-9-7-5-3-2-4-6(7)8/h2-5,8H,1H3

> <reference>
ECHA

> <molecule_form>
V

$$$$

  Mrv1812 01171911372D          

 20 19  0  0  0  0            999 V2000
    3.2846    1.4475    0.0000 C   0  0  0  0  0  0  0  0  0  0  0  0
    2.4596    1.4475    0.0000 C   0  0  0  0  0  0  0  0  0  0  0  0
    2.0471    2.1619    0.0000 O   0  0  0  0  0  0  0  0  0  0  0  0
    2.0471    0.7330    0.0000 O   0  0  0  0  0  0  0  0  0  0  0  0
    1.2221    0.7330    0.0000 C   0  0  0  0  0  0  0  0  0  0  0  0
    0.8096    0.0185    0.0000 C   0  0  0  0  0  0  0  0  0  0  0  0
   -0.0154    0.0185    0.0000 C   0  0  0  0  0  0  0  0  0  0  0  0
   -0.4279    0.7330    0.0000 C   0  0  0  0  0  0  0  0  0  0  0  0
   -0.4279   -0.6960    0.0000 C   0  0  0  0  0  0  0  0  0  0  0  0
   -0.0154   -1.4104    0.0000 O   0  0  0  0  0  0  0  0  0  0  0  0
    3.2846    0.6225    0.0000 H   0  0  0  0  0  0  0  0  0  0  0  0
    4.1096    1.4475    0.0000 H   0  0  0  0  0  0  0  0  0  0  0  0
    3.2846    2.2725    0.0000 H   0  0  0  0  0  0  0  0  0  0  0  0
    1.1741    1.5566    0.0000 H   0  0  0  0  0  0  0  0  0  0  0  0
    0.5328    1.1863    0.0000 H   0  0  0  0  0  0  0  0  0  0  0  0
    1.2221   -0.6960    0.0000 H   0  0  0  0  0  0  0  0  0  0  0  0
    0.2866    1.1455    0.0000 H   0  0  0  0  0  0  0  0  0  0  0  0
   -0.8404    1.4475    0.0000 H   0  0  0  0  0  0  0  0  0  0  0  0
   -1.1424    0.3205    0.0000 H   0  0  0  0  0  0  0  0  0  0  0  0
   -1.2529   -0.6960    0.0000 H   0  0  0  0  0  0  0  0  0  0  0  0
  1  2  1  0  0  0  0
  2  3  2  0  0  0  0
  2  4  1  0  0  0  0
  4  5  1  0  0  0  0
  6  5  1  4  0  0  0
  6  7  2  0  0  0  0
  7  8  1  0  0  0  0
  7  9  1  0  0  0  0
  9 10  2  0  0  0  0
  1 11  1  0  0  0  0
  1 12  1  0  0  0  0
  1 13  1  0  0  0  0
  5 14  1  0  0  0  0
  5 15  1  0  0  0  0
  6 16  1  0  0  0  0
  8 17  1  0  0  0  0
  8 18  1  0  0  0  0
  8 19  1  0  0  0  0
  9 20  1  0  0  0  0
M  END
> <id>
1781

> <casrn>
26586-02-7

> <smiles (First)>


> <Molecular weight>
142.15249633789062

> <name>
3-methyl-4-oxobut-2-en-1-yl acetate

> <Outcome>
1

> <Molecule (RDKit Mol) (InChI Code)>
InChI=1S/C7H10O3/c1-6(5-8)3-4-10-7(2)9/h3,5H,4H2,1-2H3

> <reference>
ECHA

> <molecule_form>
A

$$$$

  Mrv1812 01171911372D          

 15 14  0  0  0  0            999 V2000
    1.2925    2.2151    0.0000 C   0  0  0  0  0  0  0  0  0  0  0  0
    0.8800    1.5006    0.0000 O   0  0  0  0  0  0  0  0  0  0  0  0
    1.2925    0.7861    0.0000 C   0  0  0  0  0  0  0  0  0  0  0  0
    2.1175    0.7861    0.0000 O   0  0  0  0  0  0  0  0  0  0  0  0
    0.8800    0.0717    0.0000 C   0  0  0  0  0  0  0  0  0  0  0  0
    1.2925   -0.6428    0.0000 C   0  0  0  0  0  0  0  0  0  0  0  0
    0.0550    0.0717    0.0000 O   0  0  0  0  0  0  0  0  0  0  0  0
    2.0070    1.8026    0.0000 H   0  0  0  0  0  0  0  0  0  0  0  0
    1.7050    2.9295    0.0000 H   0  0  0  0  0  0  0  0  0  0  0  0
    0.5780    2.6276    0.0000 H   0  0  0  0  0  0  0  0  0  0  0  0
    1.7050    0.0717    0.0000 H   0  0  0  0  0  0  0  0  0  0  0  0
    0.4956   -0.8563    0.0000 H   0  0  0  0  0  0  0  0  0  0  0  0
    1.2925   -1.4678    0.0000 H   0  0  0  0  0  0  0  0  0  0  0  0
    2.0894   -0.8563    0.0000 H   0  0  0  0  0  0  0  0  0  0  0  0
   -0.3575    0.7861    0.0000 H   0  0  0  0  0  0  0  0  0  0  0  0
  1  2  1  0  0  0  0
  2  3  1  0  0  0  0
  3  4  2  0  0  0  0
  3  5  1  0  0  0  0
  5  6  1  0  0  0  0
  5  7  1  0  0  0  0
  1  8  1  0  0  0  0
  1  9  1  0  0  0  0
  1 10  1  0  0  0  0
  5 11  1  0  0  0  0
  6 12  1  0  0  0  0
  6 13  1  0  0  0  0
  6 14  1  0  0  0  0
  7 15  1  0  0  0  0
M  END
> <id>
3448

> <casrn>
17392-83-5

> <smiles (First)>


> <Molecular weight>
104.10452270507812

> <name>
methyl 2-hydroxypropanoate

> <Outcome>
0

> <Molecule (RDKit Mol) (InChI Code)>
InChI=1S/C4H8O3/c1-3(5)4(6)7-2/h3,5H,1-2H3

> <reference>
ECHA

> <molecule_form>
A

$$$$

  Mrv1812 01171911372D          

 74 82  0  0  0  0            999 V2000
    6.3974    5.2464    0.0000 C   0  0  0  0  0  0  0  0  0  0  0  0
    6.8099    4.5319    0.0000 O   0  0  0  0  0  0  0  0  0  0  0  0
    6.3974    3.8175    0.0000 C   0  0  0  0  0  0  0  0  0  0  0  0
    6.8099    3.1030    0.0000 C   0  0  0  0  0  0  0  0  0  0  0  0
    6.3974    2.3885    0.0000 C   0  0  0  0  0  0  0  0  0  0  0  0
    5.5724    2.3885    0.0000 C   0  0  0  0  0  0  0  0  0  0  0  0
    5.1599    1.6741    0.0000 C   0  0  0  0  0  0  0  0  0  0  0  0
    4.3349    1.6741    0.0000 N   0  0  0  0  0  0  0  0  0  0  0  0
    3.9224    0.9596    0.0000 C   0  0  0  0  0  0  0  0  0  0  0  0
    4.3349    0.2451    0.0000 O   0  0  0  0  0  0  0  0  0  0  0  0
    3.0974    0.9596    0.0000 C   0  0  0  0  0  0  0  0  0  0  0  0
    2.6849    0.2451    0.0000 C   0  0  0  0  0  0  0  0  0  0  0  0
    1.8599    0.2451    0.0000 C   0  0  0  0  0  0  0  0  0  0  0  0
    1.4474    0.9596    0.0000 C   0  0  0  0  0  0  0  0  0  0  0  0
    0.6224    0.9596    0.0000 C   0  0  0  0  0  0  0  0  0  0  0  0
    0.2099    0.2451    0.0000 C   0  0  0  0  0  0  0  0  0  0  0  0
   -0.6151    0.2451    0.0000 C   0  0  0  0  0  0  0  0  0  0  0  0
   -1.0276    0.9596    0.0000 C   0  0  0  0  0  0  0  0  0  0  0  0
   -1.8526    0.9596    0.0000 C   0  0  0  0  0  0  0  0  0  0  0  0
   -2.2651    0.2451    0.0000 O   0  0  0  0  0  0  0  0  0  0  0  0
   -2.2651    1.6741    0.0000 N   0  0  0  0  0  0  0  0  0  0  0  0
   -3.0901    1.6741    0.0000 C   0  0  0  0  0  0  0  0  0  0  0  0
   -3.5026    2.3885    0.0000 C   0  0  0  0  0  0  0  0  0  0  0  0
   -4.3276    2.3885    0.0000 C   0  0  0  0  0  0  0  0  0  0  0  0
   -4.7401    3.1030    0.0000 C   0  0  0  0  0  0  0  0  0  0  0  0
   -4.3276    3.8175    0.0000 C   0  0  0  0  0  0  0  0  0  0  0  0
   -4.7401    4.5319    0.0000 O   0  0  0  0  0  0  0  0  0  0  0  0
   -5.5651    4.5319    0.0000 C   0  0  0  0  0  0  0  0  0  0  0  0
   -3.5026    3.8175    0.0000 C   0  0  0  0  0  0  0  0  0  0  0  0
   -3.0901    3.1030    0.0000 C   0  0  0  0  0  0  0  0  0  0  0  0
   -1.8526    2.3885    0.0000 C   0  0  0  0  0  0  0  0  0  0  0  0
   -2.2651    3.1030    0.0000 O   0  0  0  0  0  0  0  0  0  0  0  0
   -1.0276    2.3885    0.0000 C   0  0  0  0  0  0  0  0  0  0  0  0
   -0.6151    3.1030    0.0000 C   0  0  0  0  0  0  0  0  0  0  0  0
    0.2099    3.1030    0.0000 C   0  0  0  0  0  0  0  0  0  0  0  0
    0.6224    2.3885    0.0000 C   0  0  0  0  0  0  0  0  0  0  0  0
    1.4474    2.3885    0.0000 C   0  0  0  0  0  0  0  0  0  0  0  0
    1.8599    3.1030    0.0000 C   0  0  0  0  0  0  0  0  0  0  0  0
    2.6849    3.1030    0.0000 C   0  0  0  0  0  0  0  0  0  0  0  0
    3.0974    2.3885    0.0000 C   0  0  0  0  0  0  0  0  0  0  0  0
    3.9224    2.3885    0.0000 C   0  0  0  0  0  0  0  0  0  0  0  0
    4.3349    3.1030    0.0000 O   0  0  0  0  0  0  0  0  0  0  0  0
    2.6849    1.6741    0.0000 C   0  0  0  0  0  0  0  0  0  0  0  0
    1.8599    1.6741    0.0000 C   0  0  0  0  0  0  0  0  0  0  0  0
    0.2099    1.6741    0.0000 C   0  0  0  0  0  0  0  0  0  0  0  0
   -0.6151    1.6741    0.0000 C   0  0  0  0  0  0  0  0  0  0  0  0
    5.1599    3.1030    0.0000 C   0  0  0  0  0  0  0  0  0  0  0  0
    5.5724    3.8175    0.0000 C   0  0  0  0  0  0  0  0  0  0  0  0
    7.1119    5.6589    0.0000 H   0  0  0  0  0  0  0  0  0  0  0  0
    5.9849    5.9609    0.0000 H   0  0  0  0  0  0  0  0  0  0  0  0
    5.6830    4.8339    0.0000 H   0  0  0  0  0  0  0  0  0  0  0  0
    7.6349    3.1030    0.0000 H   0  0  0  0  0  0  0  0  0  0  0  0
    6.8099    1.6741    0.0000 H   0  0  0  0  0  0  0  0  0  0  0  0
    5.2079    0.8505    0.0000 H   0  0  0  0  0  0  0  0  0  0  0  0
    5.8492    1.2207    0.0000 H   0  0  0  0  0  0  0  0  0  0  0  0
    3.0974   -0.4694    0.0000 H   0  0  0  0  0  0  0  0  0  0  0  0
    1.4474   -0.4694    0.0000 H   0  0  0  0  0  0  0  0  0  0  0  0
    0.6224   -0.4694    0.0000 H   0  0  0  0  0  0  0  0  0  0  0  0
   -1.0276   -0.4694    0.0000 H   0  0  0  0  0  0  0  0  0  0  0  0
   -3.7794    1.2207    0.0000 H   0  0  0  0  0  0  0  0  0  0  0  0
   -3.1380    0.8505    0.0000 H   0  0  0  0  0  0  0  0  0  0  0  0
   -4.7401    1.6741    0.0000 H   0  0  0  0  0  0  0  0  0  0  0  0
   -5.5651    3.1030    0.0000 H   0  0  0  0  0  0  0  0  0  0  0  0
   -5.5651    5.3569    0.0000 H   0  0  0  0  0  0  0  0  0  0  0  0
   -6.3901    4.5319    0.0000 H   0  0  0  0  0  0  0  0  0  0  0  0
   -5.5651    3.7069    0.0000 H   0  0  0  0  0  0  0  0  0  0  0  0
   -3.0901    4.5319    0.0000 H   0  0  0  0  0  0  0  0  0  0  0  0
   -2.6776    2.3885    0.0000 H   0  0  0  0  0  0  0  0  0  0  0  0
   -1.0276    3.8175    0.0000 H   0  0  0  0  0  0  0  0  0  0  0  0
    0.6224    3.8175    0.0000 H   0  0  0  0  0  0  0  0  0  0  0  0
    1.4474    3.8175    0.0000 H   0  0  0  0  0  0  0  0  0  0  0  0
    3.0974    3.8175    0.0000 H   0  0  0  0  0  0  0  0  0  0  0  0
    4.7474    3.8175    0.0000 H   0  0  0  0  0  0  0  0  0  0  0  0
    5.5724    4.6425    0.0000 H   0  0  0  0  0  0  0  0  0  0  0  0
  1  2  1  0  0  0  0
  2  3  1  0  0  0  0
  3  4  4  0  0  0  0
  4  5  4  0  0  0  0
  5  6  4  0  0  0  0
  6  7  1  0  0  0  0
  7  8  1  0  0  0  0
  8  9  1  0  0  0  0
  9 10  2  0  0  0  0
  9 11  1  0  0  0  0
 11 12  4  0  0  0  0
 12 13  4  0  0  0  0
 13 14  4  0  0  0  0
 14 15  4  0  0  0  0
 15 16  4  0  0  0  0
 16 17  4  0  0  0  0
 17 18  4  0  0  0  0
 18 19  1  0  0  0  0
 19 20  2  0  0  0  0
 19 21  1  0  0  0  0
 21 22  1  0  0  0  0
 22 23  1  0  0  0  0
 23 24  4  0  0  0  0
 24 25  4  0  0  0  0
 25 26  4  0  0  0  0
 26 27  1  0  0  0  0
 27 28  1  0  0  0  0
 26 29  4  0  0  0  0
 29 30  4  0  0  0  0
 23 30  4  0  0  0  0
 21 31  1  0  0  0  0
 31 32  2  0  0  0  0
 31 33  1  0  0  0  0
 33 34  4  0  0  0  0
 34 35  4  0  0  0  0
 35 36  4  0  0  0  0
 36 37  4  0  0  0  0
 37 38  4  0  0  0  0
 38 39  4  0  0  0  0
 39 40  4  0  0  0  0
 40 41  1  0  0  0  0
  8 41  1  0  0  0  0
 41 42  2  0  0  0  0
 40 43  4  0  0  0  0
 11 43  4  0  0  0  0
 43 44  4  0  0  0  0
 14 44  4  0  0  0  0
 37 44  4  0  0  0  0
 36 45  4  0  0  0  0
 15 45  4  0  0  0  0
 45 46  4  0  0  0  0
 18 46  4  0  0  0  0
 33 46  4  0  0  0  0
  6 47  4  0  0  0  0
 47 48  4  0  0  0  0
  3 48  4  0  0  0  0
  1 49  1  0  0  0  0
  1 50  1  0  0  0  0
  1 51  1  0  0  0  0
  4 52  1  0  0  0  0
  5 53  1  0  0  0  0
  7 54  1  0  0  0  0
  7 55  1  0  0  0  0
 12 56  1  0  0  0  0
 13 57  1  0  0  0  0
 16 58  1  0  0  0  0
 17 59  1  0  0  0  0
 22 60  1  0  0  0  0
 22 61  1  0  0  0  0
 24 62  1  0  0  0  0
 25 63  1  0  0  0  0
 28 64  1  0  0  0  0
 28 65  1  0  0  0  0
 28 66  1  0  0  0  0
 29 67  1  0  0  0  0
 30 68  1  0  0  0  0
 34 69  1  0  0  0  0
 35 70  1  0  0  0  0
 38 71  1  0  0  0  0
 39 72  1  0  0  0  0
 47 73  1  0  0  0  0
 48 74  1  0  0  0  0
M  END
> <id>
1887

> <casrn>
83524-75-8

> <smiles (First)>


> <Molecular weight>
630.6442260742188

> <name>
7,18-bis[(4-methoxyphenyl)methyl]-7,18-diazaheptacyclo[14.6.2.2??,????.0??,????.0????,????.0????,????.0??????,??????]hexacosa-1(22),2,4,9,11,13(23),14,16(24),20,25-decaene-6,8,17,19-tetrone

> <Outcome>
0

> <Molecule (RDKit Mol) (InChI Code)>
InChI=1S/C40H26N2O6/c1-47-23-7-3-21(4-8-23)19-41-37(43)29-15-11-25-27-13-17-31-36-32(40(46)42(39(31)45)20-22-5-9-24(48-2)10-6-22)18-14-28(34(27)36)26-12-16-30(38(41)44)35(29)33(25)26/h3-18H,19-20H2,1-2H3

> <reference>
ECHA

> <molecule_form>
A

$$$$

  Mrv1812 01171911372D          

 82 88  0  0  0  0            999 V2000
    1.9911   -1.2533    0.0000 C   0  0  0  0  0  0  0  0  0  0  0  0
    2.8057   -1.3839    0.0000 C   0  0  0  0  0  0  0  0  0  0  0  0
    2.7929   -0.5590    0.0000 C   0  0  0  0  0  0  0  0  0  0  0  0
    3.5008   -0.1354    0.0000 O   0  0  0  0  0  0  0  0  0  0  0  0
    3.4880    0.6895    0.0000 C   0  0  0  0  0  0  0  0  0  0  0  0
    2.7672    1.0908    0.0000 O   0  0  0  0  0  0  0  0  0  0  0  0
    4.1959    1.1131    0.0000 C   0  0  0  0  0  0  0  0  0  0  0  0
    4.5972    1.8339    0.0000 C   0  0  0  0  0  0  0  0  0  0  0  0
    5.0208    1.1259    0.0000 C   0  0  0  0  0  0  0  0  0  0  0  0
    2.5357   -2.1635    0.0000 C   0  0  0  0  0  0  0  0  0  0  0  0
    1.7256   -2.3194    0.0000 O   0  0  0  0  0  0  0  0  0  0  0  0
    1.4555   -3.0989    0.0000 C   0  0  0  0  0  0  0  0  0  0  0  0
    1.9956   -3.7226    0.0000 O   0  0  0  0  0  0  0  0  0  0  0  0
    0.6454   -3.2548    0.0000 C   0  0  0  0  0  0  0  0  0  0  0  0
    0.0217   -3.7949    0.0000 C   0  0  0  0  0  0  0  0  0  0  0  0
   -0.1342   -2.9848    0.0000 C   0  0  0  0  0  0  0  0  0  0  0  0
    3.0758   -2.7871    0.0000 C   0  0  0  0  0  0  0  0  0  0  0  0
    3.8859   -2.6312    0.0000 C   0  0  0  0  0  0  0  0  0  0  0  0
    4.1560   -1.8516    0.0000 C   0  0  0  0  0  0  0  0  0  0  0  0
    4.6961   -2.4753    0.0000 C   0  0  0  0  0  0  0  0  0  0  0  0
    3.6159   -1.2280    0.0000 C   0  0  0  0  0  0  0  0  0  0  0  0
    3.8859   -0.4485    0.0000 C   0  0  0  0  0  0  0  0  0  0  0  0
    4.6961   -0.2925    0.0000 C   0  0  0  0  0  0  0  0  0  0  0  0
    4.9661    0.4870    0.0000 O   0  0  0  0  0  0  0  0  0  0  0  0
    5.2361   -0.9162    0.0000 C   0  0  0  0  0  0  0  0  0  0  0  0
    5.5062   -0.1366    0.0000 C   0  0  0  0  0  0  0  0  0  0  0  0
    6.0463   -0.7603    0.0000 O   0  0  0  0  0  0  0  0  0  0  0  0
    6.5864   -1.3839    0.0000 C   0  0  0  0  0  0  0  0  0  0  0  0
    7.3965   -1.2280    0.0000 C   0  0  0  0  0  0  0  0  0  0  0  0
    7.9366   -1.8516    0.0000 C   0  0  0  0  0  0  0  0  0  0  0  0
    8.7467   -1.6957    0.0000 C   0  0  0  0  0  0  0  0  0  0  0  0
    9.0168   -0.9162    0.0000 C   0  0  0  0  0  0  0  0  0  0  0  0
    9.8269   -0.7603    0.0000 C   0  0  0  0  0  0  0  0  0  0  0  0
   10.3670   -1.3839    0.0000 C   0  0  0  0  0  0  0  0  0  0  0  0
   10.0970   -2.1635    0.0000 N   0  0  0  0  0  0  0  0  0  0  0  0
    9.2868   -2.3194    0.0000 C   0  0  0  0  0  0  0  0  0  0  0  0
    7.6665   -2.6312    0.0000 O   0  0  0  0  0  0  0  0  0  0  0  0
    6.8564   -2.7871    0.0000 C   0  0  0  0  0  0  0  0  0  0  0  0
    6.5864   -3.5667    0.0000 O   0  0  0  0  0  0  0  0  0  0  0  0
    6.3163   -2.1635    0.0000 C   0  0  0  0  0  0  0  0  0  0  0  0
    5.5062   -2.3194    0.0000 C   0  0  0  0  0  0  0  0  0  0  0  0
    5.2361   -3.0989    0.0000 O   0  0  0  0  0  0  0  0  0  0  0  0
    4.9661   -1.6957    0.0000 C   0  0  0  0  0  0  0  0  0  0  0  0
    2.1217   -0.4387    0.0000 H   0  0  0  0  0  0  0  0  0  0  0  0
    1.1765   -1.1228    0.0000 H   0  0  0  0  0  0  0  0  0  0  0  0
    1.8606   -2.0679    0.0000 H   0  0  0  0  0  0  0  0  0  0  0  0
    2.6444    0.2525    0.0000 H   0  0  0  0  0  0  0  0  0  0  0  0
    3.5137   -0.9603    0.0000 H   0  0  0  0  0  0  0  0  0  0  0  0
    4.4218    0.3196    0.0000 H   0  0  0  0  0  0  0  0  0  0  0  0
    5.0398    2.5301    0.0000 H   0  0  0  0  0  0  0  0  0  0  0  0
    4.1332    2.5160    0.0000 H   0  0  0  0  0  0  0  0  0  0  0  0
    5.8307    0.9688    0.0000 H   0  0  0  0  0  0  0  0  0  0  0  0
    5.6799    1.6221    0.0000 H   0  0  0  0  0  0  0  0  0  0  0  0
    3.3458   -2.0076    0.0000 H   0  0  0  0  0  0  0  0  0  0  0  0
    0.7045   -2.4320    0.0000 H   0  0  0  0  0  0  0  0  0  0  0  0
   -0.6322   -4.2978    0.0000 H   0  0  0  0  0  0  0  0  0  0  0  0
    0.2245   -4.5946    0.0000 H   0  0  0  0  0  0  0  0  0  0  0  0
   -0.2427   -2.1670    0.0000 H   0  0  0  0  0  0  0  0  0  0  0  0
   -0.9281   -2.7605    0.0000 H   0  0  0  0  0  0  0  0  0  0  0  0
    2.4846   -3.3625    0.0000 H   0  0  0  0  0  0  0  0  0  0  0  0
    3.1843   -3.6049    0.0000 H   0  0  0  0  0  0  0  0  0  0  0  0
    3.7554   -3.4458    0.0000 H   0  0  0  0  0  0  0  0  0  0  0  0
    4.3095   -3.3391    0.0000 H   0  0  0  0  0  0  0  0  0  0  0  0
    4.6609   -3.2995    0.0000 H   0  0  0  0  0  0  0  0  0  0  0  0
    4.9677   -3.2543    0.0000 H   0  0  0  0  0  0  0  0  0  0  0  0
    5.4756   -2.7453    0.0000 H   0  0  0  0  0  0  0  0  0  0  0  0
    4.4260   -1.0721    0.0000 H   0  0  0  0  0  0  0  0  0  0  0  0
    3.7712    0.3685    0.0000 H   0  0  0  0  0  0  0  0  0  0  0  0
    3.0679   -0.5552    0.0000 H   0  0  0  0  0  0  0  0  0  0  0  0
    3.9642    0.0883    0.0000 H   0  0  0  0  0  0  0  0  0  0  0  0
    5.7507    0.7419    0.0000 H   0  0  0  0  0  0  0  0  0  0  0  0
    6.2898   -0.3946    0.0000 H   0  0  0  0  0  0  0  0  0  0  0  0
    6.3111    0.0443    0.0000 H   0  0  0  0  0  0  0  0  0  0  0  0
    6.1041    0.4319    0.0000 H   0  0  0  0  0  0  0  0  0  0  0  0
    7.6665   -0.4485    0.0000 H   0  0  0  0  0  0  0  0  0  0  0  0
    8.4767   -0.2925    0.0000 H   0  0  0  0  0  0  0  0  0  0  0  0
   10.0970    0.0193    0.0000 H   0  0  0  0  0  0  0  0  0  0  0  0
   11.1771   -1.2280    0.0000 H   0  0  0  0  0  0  0  0  0  0  0  0
    9.0168   -3.0989    0.0000 H   0  0  0  0  0  0  0  0  0  0  0  0
    5.7762   -1.5398    0.0000 H   0  0  0  0  0  0  0  0  0  0  0  0
    5.7986   -3.7025    0.0000 H   0  0  0  0  0  0  0  0  0  0  0  0
    5.1220   -2.5059    0.0000 H   0  0  0  0  0  0  0  0  0  0  0  0
  1  2  1  0  0  0  0
  2  3  1  0  0  0  0
  3  4  1  0  0  0  0
  4  5  1  0  0  0  0
  5  6  2  0  0  0  0
  5  7  1  0  0  0  0
  7  8  1  0  0  0  0
  8  9  1  0  0  0  0
  7  9  1  0  0  0  0
  2 10  1  0  0  0  0
 10 11  1  0  0  0  0
 11 12  1  0  0  0  0
 12 13  2  0  0  0  0
 12 14  1  0  0  0  0
 14 15  1  0  0  0  0
 15 16  1  0  0  0  0
 14 16  1  0  0  0  0
 10 17  1  0  0  0  0
 17 18  1  0  0  0  0
 18 19  1  0  0  0  0
 19 20  1  0  0  0  0
 19 21  1  0  0  0  0
  2 21  1  0  0  0  0
 21 22  1  0  0  0  0
 22 23  1  0  0  0  0
 23 24  1  0  0  0  0
 23 25  1  0  0  0  0
 25 26  1  0  0  0  0
 25 27  1  0  0  0  0
 27 28  1  0  0  0  0
 28 29  1  0  0  0  0
 29 30  2  0  0  0  0
 30 31  1  0  0  0  0
 31 32  4  0  0  0  0
 32 33  4  0  0  0  0
 33 34  4  0  0  0  0
 34 35  4  0  0  0  0
 35 36  4  0  0  0  0
 31 36  4  0  0  0  0
 30 37  1  0  0  0  0
 37 38  1  0  0  0  0
 38 39  2  0  0  0  0
 38 40  1  0  0  0  0
 28 40  2  0  0  0  0
 40 41  1  0  0  0  0
 41 42  1  0  0  0  0
 41 43  1  0  0  0  0
 19 43  1  0  0  0  0
 25 43  1  0  0  0  0
  1 44  1  0  0  0  0
  1 45  1  0  0  0  0
  1 46  1  0  0  0  0
  3 47  1  0  0  0  0
  3 48  1  0  0  0  0
  7 49  1  0  0  0  0
  8 50  1  0  0  0  0
  8 51  1  0  0  0  0
  9 52  1  0  0  0  0
  9 53  1  0  0  0  0
 10 54  1  0  0  0  0
 14 55  1  0  0  0  0
 15 56  1  0  0  0  0
 15 57  1  0  0  0  0
 16 58  1  0  0  0  0
 16 59  1  0  0  0  0
 17 60  1  0  0  0  0
 17 61  1  0  0  0  0
 18 62  1  0  0  0  0
 18 63  1  0  0  0  0
 20 64  1  0  0  0  0
 20 65  1  0  0  0  0
 20 66  1  0  0  0  0
 21 67  1  0  0  0  0
 22 68  1  0  0  0  0
 22 69  1  0  0  0  0
 23 70  1  0  0  0  0
 24 71  1  0  0  0  0
 26 72  1  0  0  0  0
 26 73  1  0  0  0  0
 26 74  1  0  0  0  0
 29 75  1  0  0  0  0
 32 76  1  0  0  0  0
 33 77  1  0  0  0  0
 34 78  1  0  0  0  0
 36 79  1  0  0  0  0
 41 80  1  0  0  0  0
 42 81  1  0  0  0  0
 43 82  1  0  0  0  0
M  END
> <id>
4319

> <casrn>
915972-17-7

> <smiles (First)>


> <Molecular weight>
593.6640625

> <name>
unnamed [915972-17-7]

> <Outcome>
0

> <Molecule (RDKit Mol) (InChI Code)>
InChI=1S/C33H39NO9/c1-31-11-10-24(42-29(38)18-8-9-18)32(2,16-40-28(37)17-6-7-17)22(31)14-23(35)33(3)27(31)26(36)25-21(43-33)13-20(41-30(25)39)19-5-4-12-34-15-19/h4-5,12-13,15,17-18,22-24,26-27,35-36H,6-11,14,16H2,1-3H3

> <reference>
ECHA

> <molecule_form>
A

$$$$

  Mrv1812 01171911372D          

  6  5  0  0  0  0            999 V2000
    0.8250    0.0000    0.0000 C   0  0  0  0  0  0  0  0  0  0  0  0
   -0.0000    0.0000    0.0000 S   0  0  0  0  0  0  0  0  0  0  0  0
    0.8250   -0.8250    0.0000 H   0  0  0  0  0  0  0  0  0  0  0  0
    1.6500   -0.0000    0.0000 H   0  0  0  0  0  0  0  0  0  0  0  0
    0.8250    0.8250    0.0000 H   0  0  0  0  0  0  0  0  0  0  0  0
   -0.4125    0.7145    0.0000 H   0  0  0  0  0  0  0  0  0  0  0  0
  1  2  1  0  0  0  0
  1  3  1  0  0  0  0
  1  4  1  0  0  0  0
  1  5  1  0  0  0  0
  2  6  1  0  0  0  0
M  END
> <id>
3429

> <casrn>
74-93-1

> <smiles (First)>


> <Molecular weight>
48.107460021972656

> <name>
methanethiol

> <Outcome>
1

> <Molecule (RDKit Mol) (InChI Code)>
InChI=1S/CH4S/c1-2/h2H,1H3

> <reference>
ECHA

> <molecule_form>
G

$$$$

  Mrv1812 01171911372D          

 24 25  0  0  0  0            999 V2000
    1.5289   -0.0212    0.0000 O   0  0  0  0  0  0  0  0  0  0  0  0
    2.2434   -0.4337    0.0000 C   0  0  0  0  0  0  0  0  0  0  0  0
    2.2434   -1.2587    0.0000 C   0  0  0  0  0  0  0  0  0  0  0  0
    2.9578   -1.6712    0.0000 C   0  0  0  0  0  0  0  0  0  0  0  0
    2.9578   -2.4962    0.0000 C   0  0  0  0  0  0  0  0  0  0  0  0
    2.2434   -2.9087    0.0000 C   0  0  0  0  0  0  0  0  0  0  0  0
    2.2434   -3.7337    0.0000 F   0  0  0  0  0  0  0  0  0  0  0  0
    1.5289   -2.4962    0.0000 C   0  0  0  0  0  0  0  0  0  0  0  0
    1.5289   -1.6712    0.0000 C   0  0  0  0  0  0  0  0  0  0  0  0
    2.9578   -0.0212    0.0000 C   0  0  0  0  0  0  0  0  0  0  0  0
    2.9578    0.8038    0.0000 C   0  0  0  0  0  0  0  0  0  0  0  0
    3.6723    1.2163    0.0000 C   0  0  0  0  0  0  0  0  0  0  0  0
    4.3868    0.8038    0.0000 C   0  0  0  0  0  0  0  0  0  0  0  0
    5.1013    1.2163    0.0000 F   0  0  0  0  0  0  0  0  0  0  0  0
    4.3868   -0.0212    0.0000 C   0  0  0  0  0  0  0  0  0  0  0  0
    3.6723   -0.4337    0.0000 C   0  0  0  0  0  0  0  0  0  0  0  0
    3.6723   -1.2587    0.0000 H   0  0  0  0  0  0  0  0  0  0  0  0
    3.6723   -2.9087    0.0000 H   0  0  0  0  0  0  0  0  0  0  0  0
    0.8144   -2.9087    0.0000 H   0  0  0  0  0  0  0  0  0  0  0  0
    0.8144   -1.2587    0.0000 H   0  0  0  0  0  0  0  0  0  0  0  0
    2.2434    1.2163    0.0000 H   0  0  0  0  0  0  0  0  0  0  0  0
    3.6723    2.0413    0.0000 H   0  0  0  0  0  0  0  0  0  0  0  0
    5.1013   -0.4337    0.0000 H   0  0  0  0  0  0  0  0  0  0  0  0
    2.9578   -0.8462    0.0000 H   0  0  0  0  0  0  0  0  0  0  0  0
  1  2  2  0  0  0  0
  2  3  1  0  0  0  0
  3  4  4  0  0  0  0
  4  5  4  0  0  0  0
  5  6  4  0  0  0  0
  6  7  1  0  0  0  0
  6  8  4  0  0  0  0
  8  9  4  0  0  0  0
  3  9  4  0  0  0  0
  2 10  1  0  0  0  0
 10 11  4  0  0  0  0
 11 12  4  0  0  0  0
 12 13  4  0  0  0  0
 13 14  1  0  0  0  0
 13 15  4  0  0  0  0
 15 16  4  0  0  0  0
 10 16  4  0  0  0  0
  4 17  1  0  0  0  0
  5 18  1  0  0  0  0
  8 19  1  0  0  0  0
  9 20  1  0  0  0  0
 11 21  1  0  0  0  0
 12 22  1  0  0  0  0
 15 23  1  0  0  0  0
 16 24  1  0  0  0  0
M  END
> <id>
2656

> <casrn>
345-92-6

> <smiles (First)>


> <Molecular weight>
218.19883728027344

> <name>
bis(4-fluorophenyl)methanone

> <Outcome>
0

> <Molecule (RDKit Mol) (InChI Code)>
InChI=1S/C13H8F2O/c14-11-5-1-9(2-6-11)13(16)10-3-7-12(15)8-4-10/h1-8H

> <reference>
ECHA

> <molecule_form>
A

$$$$

  Mrv1812 01171911372D          

 18 18  0  0  0  0            999 V2000
    1.3943    1.2766    0.0000 C   0  0  0  0  0  0  0  0  0  0  0  0
    2.1088    0.8641    0.0000 C   0  0  0  0  0  0  0  0  0  0  0  0
    2.8233    1.2766    0.0000 C   0  0  0  0  0  0  0  0  0  0  0  0
    3.5377    0.8641    0.0000 O   0  0  0  0  0  0  0  0  0  0  0  0
    4.2522    1.2766    0.0000 C   0  0  0  0  0  0  0  0  0  0  0  0
    4.9667    0.8641    0.0000 C   0  0  0  0  0  0  0  0  0  0  0  0
    5.7917    0.8641    0.0000 C   0  0  0  0  0  0  0  0  0  0  0  0
    5.3792    0.1497    0.0000 O   0  0  0  0  0  0  0  0  0  0  0  0
    1.3943    2.1016    0.0000 H   0  0  0  0  0  0  0  0  0  0  0  0
    0.6799    0.8641    0.0000 H   0  0  0  0  0  0  0  0  0  0  0  0
    2.1088    0.0391    0.0000 H   0  0  0  0  0  0  0  0  0  0  0  0
    3.1935    2.0139    0.0000 H   0  0  0  0  0  0  0  0  0  0  0  0
    2.4530    2.0139    0.0000 H   0  0  0  0  0  0  0  0  0  0  0  0
    4.6225    2.0139    0.0000 H   0  0  0  0  0  0  0  0  0  0  0  0
    3.8820    2.0139    0.0000 H   0  0  0  0  0  0  0  0  0  0  0  0
    4.3833    0.2808    0.0000 H   0  0  0  0  0  0  0  0  0  0  0  0
    6.6153    0.8162    0.0000 H   0  0  0  0  0  0  0  0  0  0  0  0
    6.1619    1.6014    0.0000 H   0  0  0  0  0  0  0  0  0  0  0  0
  1  2  2  0  0  0  0
  2  3  1  0  0  0  0
  3  4  1  0  0  0  0
  4  5  1  0  0  0  0
  5  6  1  0  0  0  0
  6  7  1  0  0  0  0
  7  8  1  0  0  0  0
  6  8  1  0  0  0  0
  1  9  1  0  0  0  0
  1 10  1  0  0  0  0
  2 11  1  0  0  0  0
  3 12  1  0  0  0  0
  3 13  1  0  0  0  0
  5 14  1  0  0  0  0
  5 15  1  0  0  0  0
  6 16  1  0  0  0  0
  7 17  1  0  0  0  0
  7 18  1  0  0  0  0
M  END
> <id>
1398

> <casrn>
106-92-3

> <smiles (First)>


> <Molecular weight>
114.14240264892578

> <name>
2-[(prop-2-en-1-yloxy)methyl]oxirane

> <Outcome>
1

> <Molecule (RDKit Mol) (InChI Code)>
InChI=1S/C6H10O2/c1-2-3-7-4-6-5-8-6/h2,6H,1,3-5H2

> <reference>
ECHA

> <molecule_form>
V

$$$$

  Mrv1812 01171911372D          

 15 15  0  0  0  0            999 V2000
    0.7145    2.0625    0.0000 Cl  0  0  0  0  0  0  0  0  0  0  0  0
    0.7145    1.2375    0.0000 C   0  0  0  0  0  0  0  0  0  0  0  0
    1.4289    0.8250    0.0000 C   0  0  0  0  0  0  0  0  0  0  0  0
    1.4289   -0.0000    0.0000 C   0  0  0  0  0  0  0  0  0  0  0  0
    0.7145   -0.4125    0.0000 C   0  0  0  0  0  0  0  0  0  0  0  0
    0.7145   -1.2375    0.0000 C   0  0  0  0  0  0  0  0  0  0  0  0
    0.7145   -2.0625    0.0000 Cl  0  0  0  0  0  0  0  0  0  0  0  0
   -0.1105   -1.2375    0.0000 Cl  0  0  0  0  0  0  0  0  0  0  0  0
    1.5395   -1.2375    0.0000 Cl  0  0  0  0  0  0  0  0  0  0  0  0
    0.0000    0.0000    0.0000 C   0  0  0  0  0  0  0  0  0  0  0  0
    0.0000    0.8250    0.0000 C   0  0  0  0  0  0  0  0  0  0  0  0
    2.1434    1.2375    0.0000 H   0  0  0  0  0  0  0  0  0  0  0  0
    2.1434   -0.4125    0.0000 H   0  0  0  0  0  0  0  0  0  0  0  0
   -0.7145   -0.4125    0.0000 H   0  0  0  0  0  0  0  0  0  0  0  0
   -0.7145    1.2375    0.0000 H   0  0  0  0  0  0  0  0  0  0  0  0
  1  2  1  0  0  0  0
  2  3  4  0  0  0  0
  3  4  4  0  0  0  0
  4  5  4  0  0  0  0
  5  6  1  0  0  0  0
  6  7  1  0  0  0  0
  6  8  1  0  0  0  0
  6  9  1  0  0  0  0
  5 10  4  0  0  0  0
 10 11  4  0  0  0  0
  2 11  4  0  0  0  0
  3 12  1  0  0  0  0
  4 13  1  0  0  0  0
 10 14  1  0  0  0  0
 11 15  1  0  0  0  0
M  END
> <id>
1144

> <casrn>
5216-25-1

> <smiles (First)>


> <Molecular weight>
229.9186553955078

> <name>
1-chloro-4-(trichloromethyl)benzene

> <Outcome>
1

> <Molecule (RDKit Mol) (InChI Code)>
InChI=1S/C7H4Cl4/c8-6-3-1-5(2-4-6)7(9,10)11/h1-4H

> <reference>
ECHA

> <molecule_form>
A

$$$$

  Mrv1812 01171911372D          

 58 58  0  0  0  0            999 V2000
   -2.2880   -9.4527    0.0000 C   0  0  0  0  0  0  0  0  0  0  0  0
   -1.5735   -9.0402    0.0000 C   0  0  0  0  0  0  0  0  0  0  0  0
   -0.8591   -9.4527    0.0000 C   0  0  0  0  0  0  0  0  0  0  0  0
   -0.1446   -9.0402    0.0000 C   0  0  0  0  0  0  0  0  0  0  0  0
    0.5699   -9.4527    0.0000 C   0  0  0  0  0  0  0  0  0  0  0  0
    1.2844   -9.0402    0.0000 C   0  0  0  0  0  0  0  0  0  0  0  0
    1.9988   -9.4527    0.0000 C   0  0  0  0  0  0  0  0  0  0  0  0
    2.7133   -9.0402    0.0000 C   0  0  0  0  0  0  0  0  0  0  0  0
    3.4278   -9.4527    0.0000 C   0  0  0  0  0  0  0  0  0  0  0  0
    4.1422   -9.0402    0.0000 C   0  0  0  0  0  0  0  0  0  0  0  0
    4.8567   -9.4527    0.0000 C   0  0  0  0  0  0  0  0  0  0  0  0
    5.5712   -9.0402    0.0000 C   0  0  0  0  0  0  0  0  0  0  0  0
    5.5712   -8.2152    0.0000 O   0  0  0  0  0  0  0  0  0  0  0  0
    6.2856   -9.4527    0.0000 O   0  0  0  0  0  0  0  0  0  0  0  0
    7.0001   -9.0402    0.0000 C   0  0  0  0  0  0  0  0  0  0  0  0
    7.7146   -9.4527    0.0000 C   0  0  0  0  0  0  0  0  0  0  0  0
    7.7146  -10.2777    0.0000 O   0  0  0  0  0  0  0  0  0  0  0  0
    8.4291   -9.0402    0.0000 C   0  0  0  0  0  0  0  0  0  0  0  0
    8.5153   -8.2197    0.0000 O   0  0  0  0  0  0  0  0  0  0  0  0
    9.3223   -8.0482    0.0000 C   0  0  0  0  0  0  0  0  0  0  0  0
    9.7348   -8.7627    0.0000 C   0  0  0  0  0  0  0  0  0  0  0  0
   10.5552   -8.8489    0.0000 O   0  0  0  0  0  0  0  0  0  0  0  0
    9.1827   -9.3757    0.0000 C   0  0  0  0  0  0  0  0  0  0  0  0
    9.3543  -10.1827    0.0000 O   0  0  0  0  0  0  0  0  0  0  0  0
   -2.7005   -8.7382    0.0000 H   0  0  0  0  0  0  0  0  0  0  0  0
   -3.0025   -9.8652    0.0000 H   0  0  0  0  0  0  0  0  0  0  0  0
   -1.8755  -10.1672    0.0000 H   0  0  0  0  0  0  0  0  0  0  0  0
   -1.2033   -8.3029    0.0000 H   0  0  0  0  0  0  0  0  0  0  0  0
   -1.9438   -8.3029    0.0000 H   0  0  0  0  0  0  0  0  0  0  0  0
   -1.2293  -10.1899    0.0000 H   0  0  0  0  0  0  0  0  0  0  0  0
   -0.4888  -10.1899    0.0000 H   0  0  0  0  0  0  0  0  0  0  0  0
    0.2257   -8.3029    0.0000 H   0  0  0  0  0  0  0  0  0  0  0  0
   -0.5149   -8.3029    0.0000 H   0  0  0  0  0  0  0  0  0  0  0  0
    0.1996  -10.1899    0.0000 H   0  0  0  0  0  0  0  0  0  0  0  0
    0.9401  -10.1899    0.0000 H   0  0  0  0  0  0  0  0  0  0  0  0
    1.6546   -8.3029    0.0000 H   0  0  0  0  0  0  0  0  0  0  0  0
    0.9141   -8.3029    0.0000 H   0  0  0  0  0  0  0  0  0  0  0  0
    1.6286  -10.1899    0.0000 H   0  0  0  0  0  0  0  0  0  0  0  0
    2.3691  -10.1899    0.0000 H   0  0  0  0  0  0  0  0  0  0  0  0
    3.0836   -8.3029    0.0000 H   0  0  0  0  0  0  0  0  0  0  0  0
    2.3430   -8.3029    0.0000 H   0  0  0  0  0  0  0  0  0  0  0  0
    3.0575  -10.1899    0.0000 H   0  0  0  0  0  0  0  0  0  0  0  0
    3.7980  -10.1899    0.0000 H   0  0  0  0  0  0  0  0  0  0  0  0
    4.5125   -8.3029    0.0000 H   0  0  0  0  0  0  0  0  0  0  0  0
    3.7720   -8.3029    0.0000 H   0  0  0  0  0  0  0  0  0  0  0  0
    4.4864  -10.1899    0.0000 H   0  0  0  0  0  0  0  0  0  0  0  0
    5.2270  -10.1899    0.0000 H   0  0  0  0  0  0  0  0  0  0  0  0
    7.3704   -8.3029    0.0000 H   0  0  0  0  0  0  0  0  0  0  0  0
    6.6299   -8.3029    0.0000 H   0  0  0  0  0  0  0  0  0  0  0  0
    7.0001   -9.8652    0.0000 H   0  0  0  0  0  0  0  0  0  0  0  0
    8.1271  -10.9922    0.0000 H   0  0  0  0  0  0  0  0  0  0  0  0
    8.4722   -9.8641    0.0000 H   0  0  0  0  0  0  0  0  0  0  0  0
    9.9724   -7.5403    0.0000 H   0  0  0  0  0  0  0  0  0  0  0  0
    9.2647   -7.2252    0.0000 H   0  0  0  0  0  0  0  0  0  0  0  0
   10.0304   -9.5329    0.0000 H   0  0  0  0  0  0  0  0  0  0  0  0
   11.3133   -8.5232    0.0000 H   0  0  0  0  0  0  0  0  0  0  0  0
    9.0112   -8.5688    0.0000 H   0  0  0  0  0  0  0  0  0  0  0  0
    9.5258  -10.9897    0.0000 H   0  0  0  0  0  0  0  0  0  0  0  0
  1  2  1  0  0  0  0
  2  3  1  0  0  0  0
  3  4  1  0  0  0  0
  4  5  1  0  0  0  0
  5  6  1  0  0  0  0
  6  7  1  0  0  0  0
  7  8  1  0  0  0  0
  8  9  1  0  0  0  0
  9 10  1  0  0  0  0
 10 11  1  0  0  0  0
 11 12  1  0  0  0  0
 12 13  2  0  0  0  0
 12 14  1  0  0  0  0
 14 15  1  0  0  0  0
 15 16  1  0  0  0  0
 16 17  1  0  0  0  0
 16 18  1  0  0  0  0
 18 19  1  0  0  0  0
 19 20  1  0  0  0  0
 20 21  1  0  0  0  0
 21 22  1  0  0  0  0
 21 23  1  0  0  0  0
 18 23  1  0  0  0  0
 23 24  1  0  0  0  0
  1 25  1  0  0  0  0
  1 26  1  0  0  0  0
  1 27  1  0  0  0  0
  2 28  1  0  0  0  0
  2 29  1  0  0  0  0
  3 30  1  0  0  0  0
  3 31  1  0  0  0  0
  4 32  1  0  0  0  0
  4 33  1  0  0  0  0
  5 34  1  0  0  0  0
  5 35  1  0  0  0  0
  6 36  1  0  0  0  0
  6 37  1  0  0  0  0
  7 38  1  0  0  0  0
  7 39  1  0  0  0  0
  8 40  1  0  0  0  0
  8 41  1  0  0  0  0
  9 42  1  0  0  0  0
  9 43  1  0  0  0  0
 10 44  1  0  0  0  0
 10 45  1  0  0  0  0
 11 46  1  0  0  0  0
 11 47  1  0  0  0  0
 15 48  1  0  0  0  0
 15 49  1  0  0  0  0
 16 50  1  0  0  0  0
 17 51  1  0  0  0  0
 18 52  1  0  0  0  0
 20 53  1  0  0  0  0
 20 54  1  0  0  0  0
 21 55  1  0  0  0  0
 22 56  1  0  0  0  0
 23 57  1  0  0  0  0
 24 58  1  0  0  0  0
M  END
> <id>
175

> <casrn>
1338-39-2

> <smiles (First)>


> <Molecular weight>
346.4589538574219

> <name>
(2R)-2-[(2R,3R,4S)-3,4-dihydroxyoxolan-2-yl]-2-hydroxyethyl dodecanoate

> <Outcome>
0

> <Molecule (RDKit Mol) (InChI Code)>
InChI=1S/C18H34O6/c1-2-3-4-5-6-7-8-9-10-11-16(21)23-13-15(20)18-17(22)14(19)12-24-18/h14-15,17-20,22H,2-13H2,1H3

> <reference>
ECHA

> <molecule_form>
A

$$$$

  Mrv1812 01171911372D          

 77 76  0  0  0  0            999 V2000
    2.4028   -8.8660    0.0000 C   0  0  0  0  0  0  0  0  0  0  0  0
    1.9903   -8.1515    0.0000 C   0  0  0  0  0  0  0  0  0  0  0  0
    2.4028   -7.4370    0.0000 C   0  0  0  0  0  0  0  0  0  0  0  0
    1.9903   -6.7225    0.0000 C   0  0  0  0  0  0  0  0  0  0  0  0
    2.4028   -6.0081    0.0000 C   0  0  0  0  0  0  0  0  0  0  0  0
    1.9903   -5.2936    0.0000 C   0  0  0  0  0  0  0  0  0  0  0  0
    2.4028   -4.5791    0.0000 C   0  0  0  0  0  0  0  0  0  0  0  0
    1.9903   -3.8647    0.0000 C   0  0  0  0  0  0  0  0  0  0  0  0
    2.4028   -3.1502    0.0000 Sn  0  0  0  0  0  0  0  0  0  0  0  0
    3.1172   -3.5627    0.0000 Cl  0  0  0  0  0  0  0  0  0  0  0  0
    2.8153   -2.4357    0.0000 C   0  0  0  0  0  0  0  0  0  0  0  0
    3.6403   -2.4357    0.0000 C   0  0  0  0  0  0  0  0  0  0  0  0
    4.0528   -3.1502    0.0000 C   0  0  0  0  0  0  0  0  0  0  0  0
    4.8778   -3.1502    0.0000 C   0  0  0  0  0  0  0  0  0  0  0  0
    5.2903   -3.8647    0.0000 C   0  0  0  0  0  0  0  0  0  0  0  0
    6.1153   -3.8647    0.0000 C   0  0  0  0  0  0  0  0  0  0  0  0
    6.5278   -4.5791    0.0000 C   0  0  0  0  0  0  0  0  0  0  0  0
    7.3528   -4.5791    0.0000 C   0  0  0  0  0  0  0  0  0  0  0  0
    1.6883   -2.7377    0.0000 C   0  0  0  0  0  0  0  0  0  0  0  0
    1.6883   -1.9127    0.0000 C   0  0  0  0  0  0  0  0  0  0  0  0
    2.4028   -1.5002    0.0000 C   0  0  0  0  0  0  0  0  0  0  0  0
    3.1172   -1.9127    0.0000 C   0  0  0  0  0  0  0  0  0  0  0  0
    3.8317   -1.5002    0.0000 C   0  0  0  0  0  0  0  0  0  0  0  0
    4.5462   -1.9127    0.0000 C   0  0  0  0  0  0  0  0  0  0  0  0
    5.2607   -1.5002    0.0000 C   0  0  0  0  0  0  0  0  0  0  0  0
    5.9751   -1.9127    0.0000 C   0  0  0  0  0  0  0  0  0  0  0  0
    1.6883   -9.2785    0.0000 H   0  0  0  0  0  0  0  0  0  0  0  0
    2.8153   -9.5804    0.0000 H   0  0  0  0  0  0  0  0  0  0  0  0
    3.1172   -8.4535    0.0000 H   0  0  0  0  0  0  0  0  0  0  0  0
    1.2530   -7.7812    0.0000 H   0  0  0  0  0  0  0  0  0  0  0  0
    1.2530   -8.5217    0.0000 H   0  0  0  0  0  0  0  0  0  0  0  0
    3.1400   -7.8073    0.0000 H   0  0  0  0  0  0  0  0  0  0  0  0
    3.1400   -7.0667    0.0000 H   0  0  0  0  0  0  0  0  0  0  0  0
    1.2530   -6.3523    0.0000 H   0  0  0  0  0  0  0  0  0  0  0  0
    1.2530   -7.0928    0.0000 H   0  0  0  0  0  0  0  0  0  0  0  0
    3.1400   -6.3783    0.0000 H   0  0  0  0  0  0  0  0  0  0  0  0
    3.1400   -5.6378    0.0000 H   0  0  0  0  0  0  0  0  0  0  0  0
    1.2530   -4.9233    0.0000 H   0  0  0  0  0  0  0  0  0  0  0  0
    1.2530   -5.6639    0.0000 H   0  0  0  0  0  0  0  0  0  0  0  0
    3.1400   -4.9494    0.0000 H   0  0  0  0  0  0  0  0  0  0  0  0
    3.1400   -4.2089    0.0000 H   0  0  0  0  0  0  0  0  0  0  0  0
    1.2530   -3.4944    0.0000 H   0  0  0  0  0  0  0  0  0  0  0  0
    1.2530   -4.2349    0.0000 H   0  0  0  0  0  0  0  0  0  0  0  0
    2.2850   -1.8037    0.0000 H   0  0  0  0  0  0  0  0  0  0  0  0
    2.0028   -2.2925    0.0000 H   0  0  0  0  0  0  0  0  0  0  0  0
    4.4546   -2.3036    0.0000 H   0  0  0  0  0  0  0  0  0  0  0  0
    3.2278   -3.1502    0.0000 H   0  0  0  0  0  0  0  0  0  0  0  0
    3.7706   -3.9254    0.0000 H   0  0  0  0  0  0  0  0  0  0  0  0
    4.3349   -3.9254    0.0000 H   0  0  0  0  0  0  0  0  0  0  0  0
    5.7026   -3.1667    0.0000 H   0  0  0  0  0  0  0  0  0  0  0  0
    5.3186   -2.4528    0.0000 H   0  0  0  0  0  0  0  0  0  0  0  0
    4.9084   -4.5960    0.0000 H   0  0  0  0  0  0  0  0  0  0  0  0
    5.7178   -4.5702    0.0000 H   0  0  0  0  0  0  0  0  0  0  0  0
    6.9272   -3.7181    0.0000 H   0  0  0  0  0  0  0  0  0  0  0  0
    6.6416   -3.2293    0.0000 H   0  0  0  0  0  0  0  0  0  0  0  0
    6.2404   -5.3525    0.0000 H   0  0  0  0  0  0  0  0  0  0  0  0
    6.8066   -5.3556    0.0000 H   0  0  0  0  0  0  0  0  0  0  0  0
    7.7045   -5.3254    0.0000 H   0  0  0  0  0  0  0  0  0  0  0  0
    8.1753   -4.6425    0.0000 H   0  0  0  0  0  0  0  0  0  0  0  0
    7.8147   -3.8956    0.0000 H   0  0  0  0  0  0  0  0  0  0  0  0
    1.0560   -2.2077    0.0000 H   0  0  0  0  0  0  0  0  0  0  0  0
    0.8760   -2.8818    0.0000 H   0  0  0  0  0  0  0  0  0  0  0  0
    1.7122   -1.0880    0.0000 H   0  0  0  0  0  0  0  0  0  0  0  0
    0.9989   -1.4595    0.0000 H   0  0  0  0  0  0  0  0  0  0  0  0
    3.1192   -1.0911    0.0000 H   0  0  0  0  0  0  0  0  0  0  0  0
    2.4107   -0.6752    0.0000 H   0  0  0  0  0  0  0  0  0  0  0  0
    3.9352   -2.0204    0.0000 H   0  0  0  0  0  0  0  0  0  0  0  0
    3.5306   -1.1987    0.0000 H   0  0  0  0  0  0  0  0  0  0  0  0
    4.5795   -1.1517    0.0000 H   0  0  0  0  0  0  0  0  0  0  0  0
    3.9753   -0.6878    0.0000 H   0  0  0  0  0  0  0  0  0  0  0  0
    3.9468   -2.4796    0.0000 H   0  0  0  0  0  0  0  0  0  0  0  0
    4.8408   -2.6833    0.0000 H   0  0  0  0  0  0  0  0  0  0  0  0
    5.8821   -0.9575    0.0000 H   0  0  0  0  0  0  0  0  0  0  0  0
    5.3787   -0.6837    0.0000 H   0  0  0  0  0  0  0  0  0  0  0  0
    6.0967   -2.7287    0.0000 H   0  0  0  0  0  0  0  0  0  0  0  0
    6.7373   -2.2283    0.0000 H   0  0  0  0  0  0  0  0  0  0  0  0
    6.6380   -1.4216    0.0000 H   0  0  0  0  0  0  0  0  0  0  0  0
  1  2  1  0  0  0  0
  2  3  1  0  0  0  0
  3  4  1  0  0  0  0
  4  5  1  0  0  0  0
  5  6  1  0  0  0  0
  6  7  1  0  0  0  0
  7  8  1  0  0  0  0
  8  9  1  0  0  0  0
  9 10  1  0  0  0  0
  9 11  1  0  0  0  0
 11 12  1  0  0  0  0
 12 13  1  0  0  0  0
 13 14  1  0  0  0  0
 14 15  1  0  0  0  0
 15 16  1  0  0  0  0
 16 17  1  0  0  0  0
 17 18  1  0  0  0  0
  9 19  1  0  0  0  0
 19 20  1  0  0  0  0
 20 21  1  0  0  0  0
 21 22  1  0  0  0  0
 22 23  1  0  0  0  0
 23 24  1  0  0  0  0
 24 25  1  0  0  0  0
 25 26  1  0  0  0  0
  1 27  1  0  0  0  0
  1 28  1  0  0  0  0
  1 29  1  0  0  0  0
  2 30  1  0  0  0  0
  2 31  1  0  0  0  0
  3 32  1  0  0  0  0
  3 33  1  0  0  0  0
  4 34  1  0  0  0  0
  4 35  1  0  0  0  0
  5 36  1  0  0  0  0
  5 37  1  0  0  0  0
  6 38  1  0  0  0  0
  6 39  1  0  0  0  0
  7 40  1  0  0  0  0
  7 41  1  0  0  0  0
  8 42  1  0  0  0  0
  8 43  1  0  0  0  0
 11 44  1  0  0  0  0
 11 45  1  0  0  0  0
 12 46  1  0  0  0  0
 12 47  1  0  0  0  0
 13 48  1  0  0  0  0
 13 49  1  0  0  0  0
 14 50  1  0  0  0  0
 14 51  1  0  0  0  0
 15 52  1  0  0  0  0
 15 53  1  0  0  0  0
 16 54  1  0  0  0  0
 16 55  1  0  0  0  0
 17 56  1  0  0  0  0
 17 57  1  0  0  0  0
 18 58  1  0  0  0  0
 18 59  1  0  0  0  0
 18 60  1  0  0  0  0
 19 61  1  0  0  0  0
 19 62  1  0  0  0  0
 20 63  1  0  0  0  0
 20 64  1  0  0  0  0
 21 65  1  0  0  0  0
 21 66  1  0  0  0  0
 22 67  1  0  0  0  0
 22 68  1  0  0  0  0
 23 69  1  0  0  0  0
 23 70  1  0  0  0  0
 24 71  1  0  0  0  0
 24 72  1  0  0  0  0
 25 73  1  0  0  0  0
 25 74  1  0  0  0  0
 26 75  1  0  0  0  0
 26 76  1  0  0  0  0
 26 77  1  0  0  0  0
M  END
> <id>
2810

> <casrn>
2587-76-0

> <smiles (First)>


> <Molecular weight>
493.8247375488281

> <name>
chlorotrioctylstannane

> <Outcome>
1

> <Molecule (RDKit Mol) (InChI Code)>
InChI=1S/3C8H17.ClH.Sn/c3*1-3-5-7-8-6-4-2;;/h3*1,3-8H2,2H3;1H;/q;;;;+1/p-1

> <reference>
ECHA

> <molecule_form>
A

$$$$

  Mrv1812 01171911372D          

  9  8  0  0  0  0            999 V2000
    0.4085    2.1434    0.0000 N   0  0  0  0  0  0  0  0  0  0  0  0
    0.8210    1.4289    0.0000 C   0  0  0  0  0  0  0  0  0  0  0  0
    1.2335    0.7145    0.0000 C   0  0  0  0  0  0  0  0  0  0  0  0
    0.8210    0.0000    0.0000 C   0  0  0  0  0  0  0  0  0  0  0  0
    1.2335   -0.7145    0.0000 O   0  0  0  0  0  0  0  0  0  0  0  0
   -0.0040    0.0000    0.0000 O   0  0  0  0  0  0  0  0  0  0  0  0
    1.9708    0.3442    0.0000 H   0  0  0  0  0  0  0  0  0  0  0  0
    1.9708    1.0847    0.0000 H   0  0  0  0  0  0  0  0  0  0  0  0
   -0.4165    0.7145    0.0000 H   0  0  0  0  0  0  0  0  0  0  0  0
  1  2  3  0  0  0  0
  2  3  1  0  0  0  0
  3  4  1  0  0  0  0
  4  5  2  0  0  0  0
  4  6  1  0  0  0  0
  3  7  1  0  0  0  0
  3  8  1  0  0  0  0
  6  9  1  0  0  0  0
M  END
> <id>
1448; 1689

> <casrn>
372-09-8

> <smiles (First)>


> <Molecular weight>
85.0614242553711

> <name>
2-cyanoacetic acid

> <Outcome>
1

> <Molecule (RDKit Mol) (InChI Code)>
InChI=1S/C3H3NO2/c4-2-1-3(5)6/h1H2,(H,5,6)

> <reference>
ECHA

> <molecule_form>
A

$$$$

  Mrv1812 01171911372D          

 14 13  0  0  0  0            999 V2000
    2.4738   -1.4311    0.0000 C   0  0  0  0  0  0  0  0  0  0  0  0
    2.0613   -0.7167    0.0000 C   0  0  0  0  0  0  0  0  0  0  0  0
    1.2363   -0.7167    0.0000 C   0  0  0  0  0  0  0  0  0  0  0  0
    0.8238   -0.0022    0.0000 C   0  0  0  0  0  0  0  0  0  0  0  0
   -0.0012   -0.0022    0.0000 Br  0  0  0  0  0  0  0  0  0  0  0  0
    1.7593   -1.8436    0.0000 H   0  0  0  0  0  0  0  0  0  0  0  0
    2.8863   -2.1456    0.0000 H   0  0  0  0  0  0  0  0  0  0  0  0
    3.1882   -1.0186    0.0000 H   0  0  0  0  0  0  0  0  0  0  0  0
    2.7505   -0.2633    0.0000 H   0  0  0  0  0  0  0  0  0  0  0  0
    2.1092    0.1069    0.0000 H   0  0  0  0  0  0  0  0  0  0  0  0
    0.5470   -1.1700    0.0000 H   0  0  0  0  0  0  0  0  0  0  0  0
    1.1883   -1.5403    0.0000 H   0  0  0  0  0  0  0  0  0  0  0  0
    1.5130    0.4512    0.0000 H   0  0  0  0  0  0  0  0  0  0  0  0
    0.8717    0.8214    0.0000 H   0  0  0  0  0  0  0  0  0  0  0  0
  1  2  1  0  0  0  0
  2  3  1  0  0  0  0
  3  4  1  0  0  0  0
  4  5  1  0  0  0  0
  1  6  1  0  0  0  0
  1  7  1  0  0  0  0
  1  8  1  0  0  0  0
  2  9  1  0  0  0  0
  2 10  1  0  0  0  0
  3 11  1  0  0  0  0
  3 12  1  0  0  0  0
  4 13  1  0  0  0  0
  4 14  1  0  0  0  0
M  END
> <id>
1116

> <casrn>
109-65-9

> <smiles (First)>


> <Molecular weight>
137.0182647705078

> <name>
1-bromobutane

> <Outcome>
0

> <Molecule (RDKit Mol) (InChI Code)>
InChI=1S/C4H9Br/c1-2-3-4-5/h2-4H2,1H3

> <reference>
ECHA

> <molecule_form>
V

$$$$

  Mrv1812 01171911372D          

 78 78  0  0  0  0            999 V2000
   -4.4088   -2.1961    0.0000 C   0  0  0  0  0  0  0  0  0  0  0  0
   -3.8687   -1.5725    0.0000 C   0  0  0  0  0  0  0  0  0  0  0  0
   -3.0586   -1.7284    0.0000 C   0  0  0  0  0  0  0  0  0  0  0  0
   -2.5185   -1.1047    0.0000 C   0  0  0  0  0  0  0  0  0  0  0  0
   -1.7084   -1.2606    0.0000 C   0  0  0  0  0  0  0  0  0  0  0  0
   -1.1683   -0.6370    0.0000 C   0  0  0  0  0  0  0  0  0  0  0  0
   -1.4383    0.1426    0.0000 C   0  0  0  0  0  0  0  0  0  0  0  0
   -2.2484    0.2985    0.0000 C   0  0  0  0  0  0  0  0  0  0  0  0
   -2.5185    1.0780    0.0000 C   0  0  0  0  0  0  0  0  0  0  0  0
   -0.3581   -0.7929    0.0000 C   0  0  0  0  0  0  0  0  0  0  0  0
    0.1820   -0.1693    0.0000 O   0  0  0  0  0  0  0  0  0  0  0  0
    0.9921   -0.3252    0.0000 C   0  0  0  0  0  0  0  0  0  0  0  0
    1.2621   -1.1047    0.0000 O   0  0  0  0  0  0  0  0  0  0  0  0
    1.5322    0.2985    0.0000 C   0  0  0  0  0  0  0  0  0  0  0  0
    1.2621    1.0780    0.0000 C   0  0  0  0  0  0  0  0  0  0  0  0
    1.8022    1.7017    0.0000 C   0  0  0  0  0  0  0  0  0  0  0  0
    2.6124    1.5458    0.0000 C   0  0  0  0  0  0  0  0  0  0  0  0
    2.8824    0.7662    0.0000 C   0  0  0  0  0  0  0  0  0  0  0  0
    2.3423    0.1426    0.0000 C   0  0  0  0  0  0  0  0  0  0  0  0
    2.6124   -0.6370    0.0000 C   0  0  0  0  0  0  0  0  0  0  0  0
    3.4225   -0.7929    0.0000 O   0  0  0  0  0  0  0  0  0  0  0  0
    2.0723   -1.2606    0.0000 O   0  0  0  0  0  0  0  0  0  0  0  0
    2.3423   -2.0402    0.0000 C   0  0  0  0  0  0  0  0  0  0  0  0
    3.1524   -2.1961    0.0000 C   0  0  0  0  0  0  0  0  0  0  0  0
    3.4225   -2.9756    0.0000 C   0  0  0  0  0  0  0  0  0  0  0  0
    4.2326   -3.1316    0.0000 C   0  0  0  0  0  0  0  0  0  0  0  0
    4.5027   -3.9111    0.0000 C   0  0  0  0  0  0  0  0  0  0  0  0
    3.6925   -1.5725    0.0000 C   0  0  0  0  0  0  0  0  0  0  0  0
    4.5027   -1.7284    0.0000 C   0  0  0  0  0  0  0  0  0  0  0  0
    5.0428   -1.1047    0.0000 C   0  0  0  0  0  0  0  0  0  0  0  0
    5.8529   -1.2606    0.0000 C   0  0  0  0  0  0  0  0  0  0  0  0
    6.3930   -0.6370    0.0000 C   0  0  0  0  0  0  0  0  0  0  0  0
   -5.0324   -1.6560    0.0000 H   0  0  0  0  0  0  0  0  0  0  0  0
   -4.9489   -2.8197    0.0000 H   0  0  0  0  0  0  0  0  0  0  0  0
   -3.7852   -2.7362    0.0000 H   0  0  0  0  0  0  0  0  0  0  0  0
   -3.7602   -0.7546    0.0000 H   0  0  0  0  0  0  0  0  0  0  0  0
   -4.4599   -0.9970    0.0000 H   0  0  0  0  0  0  0  0  0  0  0  0
   -3.1671   -2.5462    0.0000 H   0  0  0  0  0  0  0  0  0  0  0  0
   -2.4674   -2.3038    0.0000 H   0  0  0  0  0  0  0  0  0  0  0  0
   -2.4099   -0.2869    0.0000 H   0  0  0  0  0  0  0  0  0  0  0  0
   -3.1097   -0.5293    0.0000 H   0  0  0  0  0  0  0  0  0  0  0  0
   -1.8169   -2.0785    0.0000 H   0  0  0  0  0  0  0  0  0  0  0  0
   -1.1172   -1.8361    0.0000 H   0  0  0  0  0  0  0  0  0  0  0  0
   -1.9784   -0.4811    0.0000 H   0  0  0  0  0  0  0  0  0  0  0  0
   -0.6758    0.4575    0.0000 H   0  0  0  0  0  0  0  0  0  0  0  0
   -1.2356    0.9423    0.0000 H   0  0  0  0  0  0  0  0  0  0  0  0
   -3.0730    0.2720    0.0000 H   0  0  0  0  0  0  0  0  0  0  0  0
   -1.7084    0.9221    0.0000 H   0  0  0  0  0  0  0  0  0  0  0  0
   -2.1582    1.8202    0.0000 H   0  0  0  0  0  0  0  0  0  0  0  0
   -3.1421    1.6181    0.0000 H   0  0  0  0  0  0  0  0  0  0  0  0
   -3.2016    0.6154    0.0000 H   0  0  0  0  0  0  0  0  0  0  0  0
   -0.4667   -1.6107    0.0000 H   0  0  0  0  0  0  0  0  0  0  0  0
    0.2331   -1.3683    0.0000 H   0  0  0  0  0  0  0  0  0  0  0  0
    0.4520    1.2339    0.0000 H   0  0  0  0  0  0  0  0  0  0  0  0
    1.5322    2.4812    0.0000 H   0  0  0  0  0  0  0  0  0  0  0  0
    3.1524    2.1694    0.0000 H   0  0  0  0  0  0  0  0  0  0  0  0
    3.6925    0.6103    0.0000 H   0  0  0  0  0  0  0  0  0  0  0  0
    1.5798   -2.3551    0.0000 H   0  0  0  0  0  0  0  0  0  0  0  0
    2.1396   -2.8399    0.0000 H   0  0  0  0  0  0  0  0  0  0  0  0
    2.6124   -2.8197    0.0000 H   0  0  0  0  0  0  0  0  0  0  0  0
    2.9989   -3.6836    0.0000 H   0  0  0  0  0  0  0  0  0  0  0  0
    3.5531   -3.7902    0.0000 H   0  0  0  0  0  0  0  0  0  0  0  0
    4.9952   -2.8166    0.0000 H   0  0  0  0  0  0  0  0  0  0  0  0
    4.4354   -2.3319    0.0000 H   0  0  0  0  0  0  0  0  0  0  0  0
    4.1782   -4.6696    0.0000 H   0  0  0  0  0  0  0  0  0  0  0  0
    5.1432   -4.4311    0.0000 H   0  0  0  0  0  0  0  0  0  0  0  0
    5.1783   -3.4377    0.0000 H   0  0  0  0  0  0  0  0  0  0  0  0
    2.8824   -1.4165    0.0000 H   0  0  0  0  0  0  0  0  0  0  0  0
    3.9626   -2.3520    0.0000 H   0  0  0  0  0  0  0  0  0  0  0  0
    5.2585   -2.0590    0.0000 H   0  0  0  0  0  0  0  0  0  0  0  0
    4.2326   -0.9488    0.0000 H   0  0  0  0  0  0  0  0  0  0  0  0
    5.4664   -0.3968    0.0000 H   0  0  0  0  0  0  0  0  0  0  0  0
    4.9122   -0.2901    0.0000 H   0  0  0  0  0  0  0  0  0  0  0  0
    5.7444   -2.0785    0.0000 H   0  0  0  0  0  0  0  0  0  0  0  0
    6.4441   -1.8361    0.0000 H   0  0  0  0  0  0  0  0  0  0  0  0
    6.8447   -1.3273    0.0000 H   0  0  0  0  0  0  0  0  0  0  0  0
    7.1807   -0.3918    0.0000 H   0  0  0  0  0  0  0  0  0  0  0  0
    6.3732    0.1878    0.0000 H   0  0  0  0  0  0  0  0  0  0  0  0
  1  2  1  0  0  0  0
  2  3  1  0  0  0  0
  3  4  1  0  0  0  0
  4  5  1  0  0  0  0
  5  6  1  0  0  0  0
  6  7  1  0  0  0  0
  7  8  1  0  0  0  0
  8  9  1  0  0  0  0
  6 10  1  0  0  0  0
 10 11  1  0  0  0  0
 11 12  1  0  0  0  0
 12 13  2  0  0  0  0
 12 14  1  0  0  0  0
 14 15  4  0  0  0  0
 15 16  4  0  0  0  0
 16 17  4  0  0  0  0
 17 18  4  0  0  0  0
 18 19  4  0  0  0  0
 14 19  4  0  0  0  0
 19 20  1  0  0  0  0
 20 21  2  0  0  0  0
 20 22  1  0  0  0  0
 22 23  1  0  0  0  0
 23 24  1  0  0  0  0
 24 25  1  0  0  0  0
 25 26  1  0  0  0  0
 26 27  1  0  0  0  0
 24 28  1  0  0  0  0
 28 29  1  0  0  0  0
 29 30  1  0  0  0  0
 30 31  1  0  0  0  0
 31 32  1  0  0  0  0
  1 33  1  0  0  0  0
  1 34  1  0  0  0  0
  1 35  1  0  0  0  0
  2 36  1  0  0  0  0
  2 37  1  0  0  0  0
  3 38  1  0  0  0  0
  3 39  1  0  0  0  0
  4 40  1  0  0  0  0
  4 41  1  0  0  0  0
  5 42  1  0  0  0  0
  5 43  1  0  0  0  0
  6 44  1  0  0  0  0
  7 45  1  0  0  0  0
  7 46  1  0  0  0  0
  8 47  1  0  0  0  0
  8 48  1  0  0  0  0
  9 49  1  0  0  0  0
  9 50  1  0  0  0  0
  9 51  1  0  0  0  0
 10 52  1  0  0  0  0
 10 53  1  0  0  0  0
 15 54  1  0  0  0  0
 16 55  1  0  0  0  0
 17 56  1  0  0  0  0
 18 57  1  0  0  0  0
 23 58  1  0  0  0  0
 23 59  1  0  0  0  0
 24 60  1  0  0  0  0
 25 61  1  0  0  0  0
 25 62  1  0  0  0  0
 26 63  1  0  0  0  0
 26 64  1  0  0  0  0
 27 65  1  0  0  0  0
 27 66  1  0  0  0  0
 27 67  1  0  0  0  0
 28 68  1  0  0  0  0
 28 69  1  0  0  0  0
 29 70  1  0  0  0  0
 29 71  1  0  0  0  0
 30 72  1  0  0  0  0
 30 73  1  0  0  0  0
 31 74  1  0  0  0  0
 31 75  1  0  0  0  0
 32 76  1  0  0  0  0
 32 77  1  0  0  0  0
 32 78  1  0  0  0  0
M  END
> <id>
919

> <casrn>
53306-54-0

> <smiles (First)>


> <Molecular weight>
446.6624450683594

> <name>
1,2-bis(2-propylheptyl) benzene-1,2-dicarboxylate

> <Outcome>
0

> <Molecule (RDKit Mol) (InChI Code)>
InChI=1S/C28H46O4/c1-5-9-11-17-23(15-7-3)21-31-27(29)25-19-13-14-20-26(25)28(30)32-22-24(16-8-4)18-12-10-6-2/h13-14,19-20,23-24H,5-12,15-18,21-22H2,1-4H3

> <reference>
ECHA

> <molecule_form>
A

$$$$

  Mrv1812 01171911372D          

 39 41  0  0  0  0            999 V2000
    5.3037   -2.0852    0.0000 C   0  0  0  0  0  0  0  0  0  0  0  0
    4.6906   -1.5331    0.0000 C   0  0  0  0  0  0  0  0  0  0  0  0
    3.9060   -1.7881    0.0000 O   0  0  0  0  0  0  0  0  0  0  0  0
    3.2929   -1.2360    0.0000 C   0  0  0  0  0  0  0  0  0  0  0  0
    3.4644   -0.4291    0.0000 O   0  0  0  0  0  0  0  0  0  0  0  0
    2.5082   -1.4910    0.0000 C   0  0  0  0  0  0  0  0  0  0  0  0
    2.2533   -2.2756    0.0000 N   0  0  0  0  0  0  0  0  0  0  0  0
    1.4283   -2.2756    0.0000 O   0  0  0  0  0  0  0  0  0  0  0  0
    1.1734   -1.4910    0.0000 C   0  0  0  0  0  0  0  0  0  0  0  0
    0.4197   -1.8265    0.0000 C   0  0  0  0  0  0  0  0  0  0  0  0
    0.3335   -2.6470    0.0000 C   0  0  0  0  0  0  0  0  0  0  0  0
   -0.4202   -2.9826    0.0000 C   0  0  0  0  0  0  0  0  0  0  0  0
   -1.0877   -2.4977    0.0000 C   0  0  0  0  0  0  0  0  0  0  0  0
   -1.0014   -1.6772    0.0000 C   0  0  0  0  0  0  0  0  0  0  0  0
   -0.2478   -1.3416    0.0000 C   0  0  0  0  0  0  0  0  0  0  0  0
    0.7609   -0.7765    0.0000 C   0  0  0  0  0  0  0  0  0  0  0  0
   -0.0641   -0.7765    0.0000 C   0  0  0  0  0  0  0  0  0  0  0  0
   -0.4766   -0.0620    0.0000 C   0  0  0  0  0  0  0  0  0  0  0  0
   -0.0641    0.6524    0.0000 C   0  0  0  0  0  0  0  0  0  0  0  0
    0.7609    0.6524    0.0000 C   0  0  0  0  0  0  0  0  0  0  0  0
    1.1734   -0.0620    0.0000 C   0  0  0  0  0  0  0  0  0  0  0  0
    1.8408   -1.0061    0.0000 C   0  0  0  0  0  0  0  0  0  0  0  0
    4.7516   -2.6983    0.0000 H   0  0  0  0  0  0  0  0  0  0  0  0
    5.9168   -2.6372    0.0000 H   0  0  0  0  0  0  0  0  0  0  0  0
    5.8557   -1.4721    0.0000 H   0  0  0  0  0  0  0  0  0  0  0  0
    5.2060   -0.8890    0.0000 H   0  0  0  0  0  0  0  0  0  0  0  0
    4.4817   -0.7350    0.0000 H   0  0  0  0  0  0  0  0  0  0  0  0
    1.0009   -3.1319    0.0000 H   0  0  0  0  0  0  0  0  0  0  0  0
   -0.5065   -3.8031    0.0000 H   0  0  0  0  0  0  0  0  0  0  0  0
   -1.8413   -2.8332    0.0000 H   0  0  0  0  0  0  0  0  0  0  0  0
   -1.6689   -1.1922    0.0000 H   0  0  0  0  0  0  0  0  0  0  0  0
   -0.8608   -0.7896    0.0000 H   0  0  0  0  0  0  0  0  0  0  0  0
    0.4208   -1.4439    0.0000 H   0  0  0  0  0  0  0  0  0  0  0  0
   -1.1988    0.3369    0.0000 H   0  0  0  0  0  0  0  0  0  0  0  0
   -0.4766    1.3669    0.0000 H   0  0  0  0  0  0  0  0  0  0  0  0
    1.1734    1.3669    0.0000 H   0  0  0  0  0  0  0  0  0  0  0  0
    1.9984   -0.0620    0.0000 H   0  0  0  0  0  0  0  0  0  0  0  0
    1.1392   -0.5721    0.0000 H   0  0  0  0  0  0  0  0  0  0  0  0
    2.6043   -0.6935    0.0000 H   0  0  0  0  0  0  0  0  0  0  0  0
  1  2  1  0  0  0  0
  2  3  1  0  0  0  0
  3  4  1  0  0  0  0
  4  5  2  0  0  0  0
  4  6  1  0  0  0  0
  6  7  2  0  0  0  0
  7  8  1  0  0  0  0
  8  9  1  0  0  0  0
  9 10  1  0  0  0  0
 10 11  4  0  0  0  0
 11 12  4  0  0  0  0
 12 13  4  0  0  0  0
 13 14  4  0  0  0  0
 14 15  4  0  0  0  0
 10 15  4  0  0  0  0
  9 16  1  0  0  0  0
 16 17  4  0  0  0  0
 17 18  4  0  0  0  0
 18 19  4  0  0  0  0
 19 20  4  0  0  0  0
 20 21  4  0  0  0  0
 16 21  4  0  0  0  0
  9 22  1  0  0  0  0
  6 22  1  0  0  0  0
  1 23  1  0  0  0  0
  1 24  1  0  0  0  0
  1 25  1  0  0  0  0
  2 26  1  0  0  0  0
  2 27  1  0  0  0  0
 11 28  1  0  0  0  0
 12 29  1  0  0  0  0
 13 30  1  0  0  0  0
 14 31  1  0  0  0  0
 15 32  1  0  0  0  0
 17 33  1  0  0  0  0
 18 34  1  0  0  0  0
 19 35  1  0  0  0  0
 20 36  1  0  0  0  0
 21 37  1  0  0  0  0
 22 38  1  0  0  0  0
 22 39  1  0  0  0  0
M  END
> <id>
3152

> <casrn>
163520-33-0

> <smiles (First)>


> <Molecular weight>
295.3324890136719

> <name>
ethyl 5,5-diphenyl-4,5-dihydro-1,2-oxazole-3-carboxylate

> <Outcome>
0

> <Molecule (RDKit Mol) (InChI Code)>
InChI=1S/C18H17NO3/c1-2-21-17(20)16-13-18(22-19-16,14-9-5-3-6-10-14)15-11-7-4-8-12-15/h3-12H,2,13H2,1H3

> <reference>
ECHA

> <molecule_form>
A

$$$$

  Mrv1812 01171911372D          

 13 12  0  0  0  0            999 V2000
    0.8250    1.4289    0.0000 C   0  0  0  0  0  0  0  0  0  0  0  0
    1.2375    0.7145    0.0000 N   0  0  0  0  0  0  0  0  0  0  0  0
    2.0625    0.7145    0.0000 C   0  0  0  0  0  0  0  0  0  0  0  0
    0.8250   -0.0000    0.0000 C   0  0  0  0  0  0  0  0  0  0  0  0
    1.2375   -0.7145    0.0000 S   0  0  0  0  0  0  0  0  0  0  0  0
   -0.0000   -0.0000    0.0000 S   0  0  0  0  0  0  0  0  0  0  0  0
    1.5395    1.8414    0.0000 H   0  0  0  0  0  0  0  0  0  0  0  0
    0.4125    2.1434    0.0000 H   0  0  0  0  0  0  0  0  0  0  0  0
    0.1105    1.0164    0.0000 H   0  0  0  0  0  0  0  0  0  0  0  0
    2.0625   -0.1105    0.0000 H   0  0  0  0  0  0  0  0  0  0  0  0
    2.8875    0.7145    0.0000 H   0  0  0  0  0  0  0  0  0  0  0  0
    2.0625    1.5395    0.0000 H   0  0  0  0  0  0  0  0  0  0  0  0
   -0.4125    0.7145    0.0000 H   0  0  0  0  0  0  0  0  0  0  0  0
  1  2  1  0  0  0  0
  2  3  1  0  0  0  0
  2  4  1  0  0  0  0
  4  5  2  0  0  0  0
  4  6  1  0  0  0  0
  1  7  1  0  0  0  0
  1  8  1  0  0  0  0
  1  9  1  0  0  0  0
  3 10  1  0  0  0  0
  3 11  1  0  0  0  0
  3 12  1  0  0  0  0
  6 13  1  0  0  0  0
M  END
> <id>
4628

> <casrn>
137-30-4

> <smiles (First)>


> <Molecular weight>
120.21643829345703

> <name>
zinc bis(dimethyldithiocarbamate)

> <Outcome>
1

> <Molecule (RDKit Mol) (InChI Code)>
InChI=1S/C3H7NS2/c1-4(2)3(5)6/h1-2H3,(H,5,6)

> <reference>
ECHA

> <molecule_form>
A

$$$$

  Mrv1812 01171911372D          

 37 38  0  0  0  0            999 V2000
    1.4069    0.7910    0.0000 N   0  0  0  0  0  0  0  0  0  0  0  0
    2.1214    0.3785    0.0000 N   0  0  0  0  0  0  0  0  0  0  0  0
    2.1214   -0.4465    0.0000 S   0  0  0  0  0  0  0  0  0  0  0  0
    1.2964   -0.4465    0.0000 O   0  0  0  0  0  0  0  0  0  0  0  0
    2.9464   -0.4465    0.0000 O   0  0  0  0  0  0  0  0  0  0  0  0
    2.1214   -1.2715    0.0000 C   0  0  0  0  0  0  0  0  0  0  0  0
    2.8358   -1.6840    0.0000 C   0  0  0  0  0  0  0  0  0  0  0  0
    2.8358   -2.5090    0.0000 C   0  0  0  0  0  0  0  0  0  0  0  0
    2.1214   -2.9215    0.0000 C   0  0  0  0  0  0  0  0  0  0  0  0
    2.1214   -3.7465    0.0000 O   0  0  0  0  0  0  0  0  0  0  0  0
    1.4069   -4.1590    0.0000 C   0  0  0  0  0  0  0  0  0  0  0  0
    1.4069   -4.9840    0.0000 C   0  0  0  0  0  0  0  0  0  0  0  0
    0.6924   -5.3965    0.0000 C   0  0  0  0  0  0  0  0  0  0  0  0
   -0.0221   -4.9840    0.0000 C   0  0  0  0  0  0  0  0  0  0  0  0
   -0.7365   -5.3965    0.0000 S   0  0  0  0  0  0  0  0  0  0  0  0
   -1.1490   -4.6820    0.0000 O   0  0  0  0  0  0  0  0  0  0  0  0
   -0.3240   -6.1110    0.0000 O   0  0  0  0  0  0  0  0  0  0  0  0
   -1.4510   -5.8090    0.0000 N   0  0  0  0  0  0  0  0  0  0  0  0
   -1.4510   -6.6340    0.0000 N   0  0  0  0  0  0  0  0  0  0  0  0
   -0.0221   -4.1590    0.0000 C   0  0  0  0  0  0  0  0  0  0  0  0
    0.6924   -3.7465    0.0000 C   0  0  0  0  0  0  0  0  0  0  0  0
    1.4069   -2.5090    0.0000 C   0  0  0  0  0  0  0  0  0  0  0  0
    1.4069   -1.6840    0.0000 C   0  0  0  0  0  0  0  0  0  0  0  0
    1.4069    1.6160    0.0000 H   0  0  0  0  0  0  0  0  0  0  0  0
    0.6924    0.3785    0.0000 H   0  0  0  0  0  0  0  0  0  0  0  0
    2.8358    0.7910    0.0000 H   0  0  0  0  0  0  0  0  0  0  0  0
    3.5503   -1.2715    0.0000 H   0  0  0  0  0  0  0  0  0  0  0  0
    3.5503   -2.9215    0.0000 H   0  0  0  0  0  0  0  0  0  0  0  0
    2.1214   -5.3965    0.0000 H   0  0  0  0  0  0  0  0  0  0  0  0
    0.6924   -6.2215    0.0000 H   0  0  0  0  0  0  0  0  0  0  0  0
   -2.1655   -5.3965    0.0000 H   0  0  0  0  0  0  0  0  0  0  0  0
   -2.1655   -7.0465    0.0000 H   0  0  0  0  0  0  0  0  0  0  0  0
   -0.7365   -7.0465    0.0000 H   0  0  0  0  0  0  0  0  0  0  0  0
   -0.7365   -3.7465    0.0000 H   0  0  0  0  0  0  0  0  0  0  0  0
    0.6924   -2.9215    0.0000 H   0  0  0  0  0  0  0  0  0  0  0  0
    0.6924   -2.0965    0.0000 H   0  0  0  0  0  0  0  0  0  0  0  0
    0.9944   -0.9695    0.0000 H   0  0  0  0  0  0  0  0  0  0  0  0
  1  2  1  0  0  0  0
  2  3  1  0  0  0  0
  3  4  2  0  0  0  0
  3  5  2  0  0  0  0
  3  6  1  0  0  0  0
  6  7  4  0  0  0  0
  7  8  4  0  0  0  0
  8  9  4  0  0  0  0
  9 10  1  0  0  0  0
 10 11  1  0  0  0  0
 11 12  4  0  0  0  0
 12 13  4  0  0  0  0
 13 14  4  0  0  0  0
 14 15  1  0  0  0  0
 15 16  2  0  0  0  0
 15 17  2  0  0  0  0
 15 18  1  0  0  0  0
 18 19  1  0  0  0  0
 14 20  4  0  0  0  0
 20 21  4  0  0  0  0
 11 21  4  0  0  0  0
  9 22  4  0  0  0  0
 22 23  4  0  0  0  0
  6 23  4  0  0  0  0
  1 24  1  0  0  0  0
  1 25  1  0  0  0  0
  2 26  1  0  0  0  0
  7 27  1  0  0  0  0
  8 28  1  0  0  0  0
 12 29  1  0  0  0  0
 13 30  1  0  0  0  0
 18 31  1  0  0  0  0
 19 32  1  0  0  0  0
 19 33  1  0  0  0  0
 20 34  1  0  0  0  0
 21 35  1  0  0  0  0
 22 36  1  0  0  0  0
 23 37  1  0  0  0  0
M  END
> <id>
1823

> <casrn>
80-51-3

> <smiles (First)>


> <Molecular weight>
358.39337158203125

> <name>
4-[4-(hydrazinesulfonyl)phenoxy]benzene-1-sulfonohydrazide

> <Outcome>
0

> <Molecule (RDKit Mol) (InChI Code)>
InChI=1S/C12H14N4O5S2/c13-15-22(17,18)11-5-1-9(2-6-11)21-10-3-7-12(8-4-10)23(19,20)16-14/h1-8,15-16H,13-14H2

> <reference>
ECHA

> <molecule_form>
A

$$$$

  Mrv1812 01171911372D          

 53 52  0  0  0  0            999 V2000
    7.9480    5.4144    0.0000 C   0  0  0  0  0  0  0  0  0  0  0  0
    8.6625    5.0019    0.0000 C   0  0  0  0  0  0  0  0  0  0  0  0
    9.3770    5.4144    0.0000 C   0  0  0  0  0  0  0  0  0  0  0  0
   10.0914    5.0019    0.0000 C   0  0  0  0  0  0  0  0  0  0  0  0
   10.8059    5.4144    0.0000 C   0  0  0  0  0  0  0  0  0  0  0  0
   11.5204    5.0019    0.0000 C   0  0  0  0  0  0  0  0  0  0  0  0
   12.2349    5.4144    0.0000 C   0  0  0  0  0  0  0  0  0  0  0  0
   12.9493    5.0019    0.0000 C   0  0  0  0  0  0  0  0  0  0  0  0
   13.6638    5.4144    0.0000 C   0  0  0  0  0  0  0  0  0  0  0  0
   14.3783    5.0019    0.0000 C   0  0  0  0  0  0  0  0  0  0  0  0
   15.0927    5.4144    0.0000 C   0  0  0  0  0  0  0  0  0  0  0  0
   15.8072    5.0019    0.0000 C   0  0  0  0  0  0  0  0  0  0  0  0
   16.5217    5.4144    0.0000 C   0  0  0  0  0  0  0  0  0  0  0  0
   17.2362    5.0019    0.0000 C   0  0  0  0  0  0  0  0  0  0  0  0
   17.9506    5.4144    0.0000 C   0  0  0  0  0  0  0  0  0  0  0  0
   18.6651    5.0019    0.0000 C   0  0  0  0  0  0  0  0  0  0  0  0
   19.3796    5.4144    0.0000 C   0  0  0  0  0  0  0  0  0  0  0  0
    8.3605    6.1289    0.0000 H   0  0  0  0  0  0  0  0  0  0  0  0
    7.2336    5.8269    0.0000 H   0  0  0  0  0  0  0  0  0  0  0  0
    7.5355    4.7000    0.0000 H   0  0  0  0  0  0  0  0  0  0  0  0
    8.2922    4.2647    0.0000 H   0  0  0  0  0  0  0  0  0  0  0  0
    9.0328    4.2647    0.0000 H   0  0  0  0  0  0  0  0  0  0  0  0
    9.7472    6.1517    0.0000 H   0  0  0  0  0  0  0  0  0  0  0  0
    9.0067    6.1517    0.0000 H   0  0  0  0  0  0  0  0  0  0  0  0
    9.7212    4.2647    0.0000 H   0  0  0  0  0  0  0  0  0  0  0  0
   10.4617    4.2647    0.0000 H   0  0  0  0  0  0  0  0  0  0  0  0
   11.1762    6.1517    0.0000 H   0  0  0  0  0  0  0  0  0  0  0  0
   10.4357    6.1517    0.0000 H   0  0  0  0  0  0  0  0  0  0  0  0
   11.1501    4.2647    0.0000 H   0  0  0  0  0  0  0  0  0  0  0  0
   11.8906    4.2647    0.0000 H   0  0  0  0  0  0  0  0  0  0  0  0
   12.6051    6.1517    0.0000 H   0  0  0  0  0  0  0  0  0  0  0  0
   11.8646    6.1517    0.0000 H   0  0  0  0  0  0  0  0  0  0  0  0
   12.5791    4.2647    0.0000 H   0  0  0  0  0  0  0  0  0  0  0  0
   13.3196    4.2647    0.0000 H   0  0  0  0  0  0  0  0  0  0  0  0
   14.0341    6.1517    0.0000 H   0  0  0  0  0  0  0  0  0  0  0  0
   13.2935    6.1517    0.0000 H   0  0  0  0  0  0  0  0  0  0  0  0
   14.0080    4.2647    0.0000 H   0  0  0  0  0  0  0  0  0  0  0  0
   14.7485    4.2647    0.0000 H   0  0  0  0  0  0  0  0  0  0  0  0
   15.4630    6.1517    0.0000 H   0  0  0  0  0  0  0  0  0  0  0  0
   14.7225    6.1517    0.0000 H   0  0  0  0  0  0  0  0  0  0  0  0
   15.4370    4.2647    0.0000 H   0  0  0  0  0  0  0  0  0  0  0  0
   16.1775    4.2647    0.0000 H   0  0  0  0  0  0  0  0  0  0  0  0
   16.8919    6.1517    0.0000 H   0  0  0  0  0  0  0  0  0  0  0  0
   16.1514    6.1517    0.0000 H   0  0  0  0  0  0  0  0  0  0  0  0
   16.8659    4.2647    0.0000 H   0  0  0  0  0  0  0  0  0  0  0  0
   17.6064    4.2647    0.0000 H   0  0  0  0  0  0  0  0  0  0  0  0
   18.3209    6.1517    0.0000 H   0  0  0  0  0  0  0  0  0  0  0  0
   17.5804    6.1517    0.0000 H   0  0  0  0  0  0  0  0  0  0  0  0
   18.2948    4.2647    0.0000 H   0  0  0  0  0  0  0  0  0  0  0  0
   19.0354    4.2647    0.0000 H   0  0  0  0  0  0  0  0  0  0  0  0
   19.7921    4.7000    0.0000 H   0  0  0  0  0  0  0  0  0  0  0  0
   20.0940    5.8269    0.0000 H   0  0  0  0  0  0  0  0  0  0  0  0
   18.9671    6.1289    0.0000 H   0  0  0  0  0  0  0  0  0  0  0  0
  1  2  1  0  0  0  0
  2  3  1  0  0  0  0
  3  4  1  0  0  0  0
  4  5  1  0  0  0  0
  5  6  1  0  0  0  0
  6  7  1  0  0  0  0
  7  8  1  0  0  0  0
  8  9  1  0  0  0  0
  9 10  1  0  0  0  0
 10 11  1  0  0  0  0
 11 12  1  0  0  0  0
 12 13  1  0  0  0  0
 13 14  1  0  0  0  0
 14 15  1  0  0  0  0
 15 16  1  0  0  0  0
 16 17  1  0  0  0  0
  1 18  1  0  0  0  0
  1 19  1  0  0  0  0
  1 20  1  0  0  0  0
  2 21  1  0  0  0  0
  2 22  1  0  0  0  0
  3 23  1  0  0  0  0
  3 24  1  0  0  0  0
  4 25  1  0  0  0  0
  4 26  1  0  0  0  0
  5 27  1  0  0  0  0
  5 28  1  0  0  0  0
  6 29  1  0  0  0  0
  6 30  1  0  0  0  0
  7 31  1  0  0  0  0
  7 32  1  0  0  0  0
  8 33  1  0  0  0  0
  8 34  1  0  0  0  0
  9 35  1  0  0  0  0
  9 36  1  0  0  0  0
 10 37  1  0  0  0  0
 10 38  1  0  0  0  0
 11 39  1  0  0  0  0
 11 40  1  0  0  0  0
 12 41  1  0  0  0  0
 12 42  1  0  0  0  0
 13 43  1  0  0  0  0
 13 44  1  0  0  0  0
 14 45  1  0  0  0  0
 14 46  1  0  0  0  0
 15 47  1  0  0  0  0
 15 48  1  0  0  0  0
 16 49  1  0  0  0  0
 16 50  1  0  0  0  0
 17 51  1  0  0  0  0
 17 52  1  0  0  0  0
 17 53  1  0  0  0  0
M  END
> <id>
3231; 3230

> <casrn>
629-78-7

> <smiles (First)>


> <Molecular weight>
240.46774291992188

> <name>
heptadecane

> <Outcome>
0

> <Molecule (RDKit Mol) (InChI Code)>
InChI=1S/C17H36/c1-3-5-7-9-11-13-15-17-16-14-12-10-8-6-4-2/h3-17H2,1-2H3

> <reference>
ECHA

> <molecule_form>
A

$$$$

  Mrv1812 01171911372D          

 60 60  0  0  0  0            999 V2000
    5.0013  -10.3131    0.0000 C   0  0  0  0  0  0  0  0  0  0  0  0
    5.7158   -9.9006    0.0000 C   0  0  0  0  0  0  0  0  0  0  0  0
    6.4302  -10.3131    0.0000 C   0  0  0  0  0  0  0  0  0  0  0  0
    7.1447   -9.9006    0.0000 C   0  0  0  0  0  0  0  0  0  0  0  0
    7.8592  -10.3131    0.0000 C   0  0  0  0  0  0  0  0  0  0  0  0
    8.5737   -9.9006    0.0000 C   0  0  0  0  0  0  0  0  0  0  0  0
    9.2881  -10.3131    0.0000 C   0  0  0  0  0  0  0  0  0  0  0  0
   10.0026   -9.9006    0.0000 C   0  0  0  0  0  0  0  0  0  0  0  0
   10.7171  -10.3131    0.0000 C   0  0  0  0  0  0  0  0  0  0  0  0
   11.4315   -9.9006    0.0000 C   0  0  0  0  0  0  0  0  0  0  0  0
   12.1460  -10.3131    0.0000 C   0  0  0  0  0  0  0  0  0  0  0  0
   12.8605   -9.9006    0.0000 C   0  0  0  0  0  0  0  0  0  0  0  0
   13.5750  -10.3131    0.0000 C   0  0  0  0  0  0  0  0  0  0  0  0
   14.2894   -9.9006    0.0000 C   0  0  0  0  0  0  0  0  0  0  0  0
   15.0039  -10.3131    0.0000 C   0  0  0  0  0  0  0  0  0  0  0  0
   15.7184   -9.9006    0.0000 C   0  0  0  0  0  0  0  0  0  0  0  0
   16.4328  -10.3131    0.0000 N   0  3  0  0  0  0  0  0  0  0  0  0
   17.1473   -9.9006    0.0000 C   0  0  0  0  0  0  0  0  0  0  0  0
   17.8618  -10.3131    0.0000 C   0  0  0  0  0  0  0  0  0  0  0  0
   17.8618  -11.1381    0.0000 C   0  0  0  0  0  0  0  0  0  0  0  0
   17.1473  -11.5506    0.0000 C   0  0  0  0  0  0  0  0  0  0  0  0
   16.4328  -11.1381    0.0000 C   0  0  0  0  0  0  0  0  0  0  0  0
    4.5888   -9.5986    0.0000 H   0  0  0  0  0  0  0  0  0  0  0  0
    4.2868  -10.7256    0.0000 H   0  0  0  0  0  0  0  0  0  0  0  0
    5.4138  -11.0276    0.0000 H   0  0  0  0  0  0  0  0  0  0  0  0
    6.0860   -9.1633    0.0000 H   0  0  0  0  0  0  0  0  0  0  0  0
    5.3455   -9.1633    0.0000 H   0  0  0  0  0  0  0  0  0  0  0  0
    6.0600  -11.0503    0.0000 H   0  0  0  0  0  0  0  0  0  0  0  0
    6.8005  -11.0503    0.0000 H   0  0  0  0  0  0  0  0  0  0  0  0
    7.5150   -9.1633    0.0000 H   0  0  0  0  0  0  0  0  0  0  0  0
    6.7745   -9.1633    0.0000 H   0  0  0  0  0  0  0  0  0  0  0  0
    7.4889  -11.0503    0.0000 H   0  0  0  0  0  0  0  0  0  0  0  0
    8.2294  -11.0503    0.0000 H   0  0  0  0  0  0  0  0  0  0  0  0
    8.9439   -9.1633    0.0000 H   0  0  0  0  0  0  0  0  0  0  0  0
    8.2034   -9.1633    0.0000 H   0  0  0  0  0  0  0  0  0  0  0  0
    8.9179  -11.0503    0.0000 H   0  0  0  0  0  0  0  0  0  0  0  0
    9.6584  -11.0503    0.0000 H   0  0  0  0  0  0  0  0  0  0  0  0
   10.3729   -9.1633    0.0000 H   0  0  0  0  0  0  0  0  0  0  0  0
    9.6323   -9.1633    0.0000 H   0  0  0  0  0  0  0  0  0  0  0  0
   10.3468  -11.0503    0.0000 H   0  0  0  0  0  0  0  0  0  0  0  0
   11.0873  -11.0503    0.0000 H   0  0  0  0  0  0  0  0  0  0  0  0
   11.8018   -9.1633    0.0000 H   0  0  0  0  0  0  0  0  0  0  0  0
   11.0613   -9.1633    0.0000 H   0  0  0  0  0  0  0  0  0  0  0  0
   11.7758  -11.0503    0.0000 H   0  0  0  0  0  0  0  0  0  0  0  0
   12.5163  -11.0503    0.0000 H   0  0  0  0  0  0  0  0  0  0  0  0
   13.2307   -9.1633    0.0000 H   0  0  0  0  0  0  0  0  0  0  0  0
   12.4902   -9.1633    0.0000 H   0  0  0  0  0  0  0  0  0  0  0  0
   13.2047  -11.0503    0.0000 H   0  0  0  0  0  0  0  0  0  0  0  0
   13.9452  -11.0503    0.0000 H   0  0  0  0  0  0  0  0  0  0  0  0
   14.6597   -9.1633    0.0000 H   0  0  0  0  0  0  0  0  0  0  0  0
   13.9192   -9.1633    0.0000 H   0  0  0  0  0  0  0  0  0  0  0  0
   14.6336  -11.0503    0.0000 H   0  0  0  0  0  0  0  0  0  0  0  0
   15.3742  -11.0503    0.0000 H   0  0  0  0  0  0  0  0  0  0  0  0
   16.0886   -9.1633    0.0000 H   0  0  0  0  0  0  0  0  0  0  0  0
   15.3481   -9.1633    0.0000 H   0  0  0  0  0  0  0  0  0  0  0  0
   17.1473   -9.0756    0.0000 H   0  0  0  0  0  0  0  0  0  0  0  0
   18.5763   -9.9006    0.0000 H   0  0  0  0  0  0  0  0  0  0  0  0
   18.5763  -11.5506    0.0000 H   0  0  0  0  0  0  0  0  0  0  0  0
   17.1473  -12.3756    0.0000 H   0  0  0  0  0  0  0  0  0  0  0  0
   15.7184  -11.5506    0.0000 H   0  0  0  0  0  0  0  0  0  0  0  0
  1  2  1  0  0  0  0
  2  3  1  0  0  0  0
  3  4  1  0  0  0  0
  4  5  1  0  0  0  0
  5  6  1  0  0  0  0
  6  7  1  0  0  0  0
  7  8  1  0  0  0  0
  8  9  1  0  0  0  0
  9 10  1  0  0  0  0
 10 11  1  0  0  0  0
 11 12  1  0  0  0  0
 12 13  1  0  0  0  0
 13 14  1  0  0  0  0
 14 15  1  0  0  0  0
 15 16  1  0  0  0  0
 16 17  1  0  0  0  0
 17 18  4  0  0  0  0
 18 19  4  0  0  0  0
 19 20  4  0  0  0  0
 20 21  4  0  0  0  0
 21 22  4  0  0  0  0
 17 22  4  0  0  0  0
  1 23  1  0  0  0  0
  1 24  1  0  0  0  0
  1 25  1  0  0  0  0
  2 26  1  0  0  0  0
  2 27  1  0  0  0  0
  3 28  1  0  0  0  0
  3 29  1  0  0  0  0
  4 30  1  0  0  0  0
  4 31  1  0  0  0  0
  5 32  1  0  0  0  0
  5 33  1  0  0  0  0
  6 34  1  0  0  0  0
  6 35  1  0  0  0  0
  7 36  1  0  0  0  0
  7 37  1  0  0  0  0
  8 38  1  0  0  0  0
  8 39  1  0  0  0  0
  9 40  1  0  0  0  0
  9 41  1  0  0  0  0
 10 42  1  0  0  0  0
 10 43  1  0  0  0  0
 11 44  1  0  0  0  0
 11 45  1  0  0  0  0
 12 46  1  0  0  0  0
 12 47  1  0  0  0  0
 13 48  1  0  0  0  0
 13 49  1  0  0  0  0
 14 50  1  0  0  0  0
 14 51  1  0  0  0  0
 15 52  1  0  0  0  0
 15 53  1  0  0  0  0
 16 54  1  0  0  0  0
 16 55  1  0  0  0  0
 18 56  1  0  0  0  0
 19 57  1  0  0  0  0
 20 58  1  0  0  0  0
 21 59  1  0  0  0  0
 22 60  1  0  0  0  0
M  CHG  1  17   1
M  END
> <id>
1166

> <casrn>
123-03-5

> <smiles (First)>


> <Molecular weight>


> <name>
1-hexadecylpyridinium chloride

> <Outcome>
1

> <Molecule (RDKit Mol) (InChI Code)>
InChI=1S/C21H38N/c1-2-3-4-5-6-7-8-9-10-11-12-13-14-16-19-22-20-17-15-18-21-22/h15,17-18,20-21H,2-14,16,19H2,1H3/q+1

> <reference>
ECHA

> <molecule_form>
A

$$$$

  Mrv1812 01171911372D          

 16 16  0  0  0  0            999 V2000
    0.7145    2.0625    0.0000 N   0  0  0  0  0  0  0  0  0  0  0  0
    0.7145    1.2375    0.0000 C   0  0  0  0  0  0  0  0  0  0  0  0
    1.4289    0.8250    0.0000 C   0  0  0  0  0  0  0  0  0  0  0  0
    1.4289   -0.0000    0.0000 C   0  0  0  0  0  0  0  0  0  0  0  0
    2.1434   -0.4125    0.0000 Cl  0  0  0  0  0  0  0  0  0  0  0  0
    0.7145   -0.4125    0.0000 N   0  0  0  0  0  0  0  0  0  0  0  0
    0.0000   -0.0000    0.0000 C   0  0  0  0  0  0  0  0  0  0  0  0
   -0.7145   -0.4125    0.0000 C   0  0  0  0  0  0  0  0  0  0  0  0
   -0.7145   -1.2375    0.0000 O   0  0  0  0  0  0  0  0  0  0  0  0
   -1.4289   -0.0000    0.0000 O   0  0  0  0  0  0  0  0  0  0  0  0
    0.0000    0.8250    0.0000 C   0  0  0  0  0  0  0  0  0  0  0  0
   -0.7145    1.2375    0.0000 Cl  0  0  0  0  0  0  0  0  0  0  0  0
    1.4289    2.4750    0.0000 H   0  0  0  0  0  0  0  0  0  0  0  0
    0.0000    2.4750    0.0000 H   0  0  0  0  0  0  0  0  0  0  0  0
    2.1434    1.2375    0.0000 H   0  0  0  0  0  0  0  0  0  0  0  0
   -1.4289    0.8250    0.0000 H   0  0  0  0  0  0  0  0  0  0  0  0
  1  2  1  0  0  0  0
  2  3  4  0  0  0  0
  3  4  4  0  0  0  0
  4  5  1  0  0  0  0
  4  6  4  0  0  0  0
  6  7  4  0  0  0  0
  7  8  1  0  0  0  0
  8  9  2  0  0  0  0
  8 10  1  0  0  0  0
  7 11  4  0  0  0  0
  2 11  4  0  0  0  0
 11 12  1  0  0  0  0
  1 13  1  0  0  0  0
  1 14  1  0  0  0  0
  3 15  1  0  0  0  0
 10 16  1  0  0  0  0
M  END
> <id>
603

> <casrn>
150114-71-9

> <smiles (First)>


> <Molecular weight>
207.01416015625

> <name>
-

> <Outcome>
0

> <Molecule (RDKit Mol) (InChI Code)>
InChI=1S/C6H4Cl2N2O2/c7-3-1-2(9)4(8)5(10-3)6(11)12/h1H,(H2,9,10)(H,11,12)

> <reference>
ECHA

> <molecule_form>
A

$$$$

  Mrv1812 01171911372D          

 34 34  0  0  0  0            999 V2000
    1.4290   -4.9490    0.0000 C   0  0  0  0  0  0  0  0  0  0  0  0
    2.1434   -5.3615    0.0000 C   0  0  0  0  0  0  0  0  0  0  0  0
    2.8579   -4.9490    0.0000 C   0  0  0  0  0  0  0  0  0  0  0  0
    3.5724   -5.3615    0.0000 C   0  0  0  0  0  0  0  0  0  0  0  0
    4.2868   -4.9490    0.0000 O   0  0  0  0  0  0  0  0  0  0  0  0
    5.0013   -5.3615    0.0000 C   0  0  0  0  0  0  0  0  0  0  0  0
    5.7158   -4.9490    0.0000 C   0  0  0  0  0  0  0  0  0  0  0  0
    6.4303   -5.3615    0.0000 O   0  0  0  0  0  0  0  0  0  0  0  0
    7.1447   -4.9490    0.0000 C   0  0  0  0  0  0  0  0  0  0  0  0
    7.1447   -4.1240    0.0000 O   0  0  0  0  0  0  0  0  0  0  0  0
    7.8592   -5.3615    0.0000 C   0  0  0  0  0  0  0  0  0  0  0  0
    8.5737   -4.9490    0.0000 C   0  0  0  0  0  0  0  0  0  0  0  0
    9.2881   -5.3615    0.0000 C   0  0  0  0  0  0  0  0  0  0  0  0
    9.2881   -6.1865    0.0000 C   0  0  0  0  0  0  0  0  0  0  0  0
    8.5737   -6.5990    0.0000 C   0  0  0  0  0  0  0  0  0  0  0  0
    7.8592   -6.1865    0.0000 C   0  0  0  0  0  0  0  0  0  0  0  0
    1.8415   -4.2345    0.0000 H   0  0  0  0  0  0  0  0  0  0  0  0
    0.7145   -4.5365    0.0000 H   0  0  0  0  0  0  0  0  0  0  0  0
    1.0165   -5.6635    0.0000 H   0  0  0  0  0  0  0  0  0  0  0  0
    1.7732   -6.0987    0.0000 H   0  0  0  0  0  0  0  0  0  0  0  0
    2.5137   -6.0987    0.0000 H   0  0  0  0  0  0  0  0  0  0  0  0
    3.2282   -4.2117    0.0000 H   0  0  0  0  0  0  0  0  0  0  0  0
    2.4876   -4.2117    0.0000 H   0  0  0  0  0  0  0  0  0  0  0  0
    3.2021   -6.0987    0.0000 H   0  0  0  0  0  0  0  0  0  0  0  0
    3.9426   -6.0987    0.0000 H   0  0  0  0  0  0  0  0  0  0  0  0
    4.6311   -6.0987    0.0000 H   0  0  0  0  0  0  0  0  0  0  0  0
    5.3716   -6.0987    0.0000 H   0  0  0  0  0  0  0  0  0  0  0  0
    6.0860   -4.2117    0.0000 H   0  0  0  0  0  0  0  0  0  0  0  0
    5.3455   -4.2117    0.0000 H   0  0  0  0  0  0  0  0  0  0  0  0
    8.5737   -4.1240    0.0000 H   0  0  0  0  0  0  0  0  0  0  0  0
   10.0026   -4.9490    0.0000 H   0  0  0  0  0  0  0  0  0  0  0  0
   10.0026   -6.5990    0.0000 H   0  0  0  0  0  0  0  0  0  0  0  0
    8.5737   -7.4240    0.0000 H   0  0  0  0  0  0  0  0  0  0  0  0
    7.1447   -6.5990    0.0000 H   0  0  0  0  0  0  0  0  0  0  0  0
  1  2  1  0  0  0  0
  2  3  1  0  0  0  0
  3  4  1  0  0  0  0
  4  5  1  0  0  0  0
  5  6  1  0  0  0  0
  6  7  1  0  0  0  0
  7  8  1  0  0  0  0
  8  9  1  0  0  0  0
  9 10  2  0  0  0  0
  9 11  1  0  0  0  0
 11 12  4  0  0  0  0
 12 13  4  0  0  0  0
 13 14  4  0  0  0  0
 14 15  4  0  0  0  0
 15 16  4  0  0  0  0
 11 16  4  0  0  0  0
  1 17  1  0  0  0  0
  1 18  1  0  0  0  0
  1 19  1  0  0  0  0
  2 20  1  0  0  0  0
  2 21  1  0  0  0  0
  3 22  1  0  0  0  0
  3 23  1  0  0  0  0
  4 24  1  0  0  0  0
  4 25  1  0  0  0  0
  6 26  1  0  0  0  0
  6 27  1  0  0  0  0
  7 28  1  0  0  0  0
  7 29  1  0  0  0  0
 12 30  1  0  0  0  0
 13 31  1  0  0  0  0
 14 32  1  0  0  0  0
 15 33  1  0  0  0  0
 16 34  1  0  0  0  0
M  END
> <id>
1426

> <casrn>
5451-76-3

> <smiles (First)>


> <Molecular weight>
222.2802276611328

> <name>
2-butoxyethyl benzoate

> <Outcome>
0

> <Molecule (RDKit Mol) (InChI Code)>
InChI=1S/C13H18O3/c1-2-3-9-15-10-11-16-13(14)12-7-5-4-6-8-12/h4-8H,2-3,9-11H2,1H3

> <reference>
ECHA

> <molecule_form>
A

$$$$

  Mrv1812 01171911372D          

 41 40  0  0  0  0            999 V2000
    1.7913   -1.8224    0.0000 C   0  0  0  0  0  0  0  0  0  0  0  0
    2.5058   -1.4099    0.0000 C   0  0  0  0  0  0  0  0  0  0  0  0
    3.2203   -1.8224    0.0000 C   0  0  0  0  0  0  0  0  0  0  0  0
    3.9348   -1.4099    0.0000 C   0  0  0  0  0  0  0  0  0  0  0  0
    4.6492   -1.8224    0.0000 C   0  0  0  0  0  0  0  0  0  0  0  0
    5.3637   -1.4099    0.0000 C   0  0  0  0  0  0  0  0  0  0  0  0
    6.0782   -1.8224    0.0000 C   0  0  0  0  0  0  0  0  0  0  0  0
    6.7926   -1.4099    0.0000 C   0  0  0  0  0  0  0  0  0  0  0  0
    7.5071   -1.8224    0.0000 Si  0  0  0  0  0  0  0  0  0  0  0  0
    8.2216   -2.2349    0.0000 O   0  0  0  0  0  0  0  0  0  0  0  0
    8.9360   -1.8224    0.0000 C   0  0  0  0  0  0  0  0  0  0  0  0
    7.0946   -2.5369    0.0000 O   0  0  0  0  0  0  0  0  0  0  0  0
    7.5071   -3.2513    0.0000 C   0  0  0  0  0  0  0  0  0  0  0  0
    7.9196   -1.1079    0.0000 O   0  0  0  0  0  0  0  0  0  0  0  0
    8.7446   -1.1079    0.0000 C   0  0  0  0  0  0  0  0  0  0  0  0
    1.3788   -1.1079    0.0000 H   0  0  0  0  0  0  0  0  0  0  0  0
    1.0769   -2.2349    0.0000 H   0  0  0  0  0  0  0  0  0  0  0  0
    2.2038   -2.5369    0.0000 H   0  0  0  0  0  0  0  0  0  0  0  0
    2.8761   -0.6726    0.0000 H   0  0  0  0  0  0  0  0  0  0  0  0
    2.1356   -0.6726    0.0000 H   0  0  0  0  0  0  0  0  0  0  0  0
    2.8500   -2.5596    0.0000 H   0  0  0  0  0  0  0  0  0  0  0  0
    3.5905   -2.5596    0.0000 H   0  0  0  0  0  0  0  0  0  0  0  0
    4.3050   -0.6726    0.0000 H   0  0  0  0  0  0  0  0  0  0  0  0
    3.5645   -0.6726    0.0000 H   0  0  0  0  0  0  0  0  0  0  0  0
    4.2790   -2.5596    0.0000 H   0  0  0  0  0  0  0  0  0  0  0  0
    5.0195   -2.5596    0.0000 H   0  0  0  0  0  0  0  0  0  0  0  0
    5.7340   -0.6726    0.0000 H   0  0  0  0  0  0  0  0  0  0  0  0
    4.9934   -0.6726    0.0000 H   0  0  0  0  0  0  0  0  0  0  0  0
    5.7079   -2.5596    0.0000 H   0  0  0  0  0  0  0  0  0  0  0  0
    6.4484   -2.5596    0.0000 H   0  0  0  0  0  0  0  0  0  0  0  0
    7.1629   -0.6726    0.0000 H   0  0  0  0  0  0  0  0  0  0  0  0
    6.4224   -0.6726    0.0000 H   0  0  0  0  0  0  0  0  0  0  0  0
    8.9900   -2.6456    0.0000 H   0  0  0  0  0  0  0  0  0  0  0  0
    9.6982   -2.1381    0.0000 H   0  0  0  0  0  0  0  0  0  0  0  0
    9.5563   -1.2784    0.0000 H   0  0  0  0  0  0  0  0  0  0  0  0
    6.7926   -3.6638    0.0000 H   0  0  0  0  0  0  0  0  0  0  0  0
    7.9196   -3.9658    0.0000 H   0  0  0  0  0  0  0  0  0  0  0  0
    8.2216   -2.8388    0.0000 H   0  0  0  0  0  0  0  0  0  0  0  0
    9.1223   -0.3745    0.0000 H   0  0  0  0  0  0  0  0  0  0  0  0
    8.5257   -0.3125    0.0000 H   0  0  0  0  0  0  0  0  0  0  0  0
    8.2424   -1.7624    0.0000 H   0  0  0  0  0  0  0  0  0  0  0  0
  1  2  1  0  0  0  0
  2  3  1  0  0  0  0
  3  4  1  0  0  0  0
  4  5  1  0  0  0  0
  5  6  1  0  0  0  0
  6  7  1  0  0  0  0
  7  8  1  0  0  0  0
  8  9  1  0  0  0  0
  9 10  1  0  0  0  0
 10 11  1  0  0  0  0
  9 12  1  0  0  0  0
 12 13  1  0  0  0  0
  9 14  1  0  0  0  0
 14 15  1  0  0  0  0
  1 16  1  0  0  0  0
  1 17  1  0  0  0  0
  1 18  1  0  0  0  0
  2 19  1  0  0  0  0
  2 20  1  0  0  0  0
  3 21  1  0  0  0  0
  3 22  1  0  0  0  0
  4 23  1  0  0  0  0
  4 24  1  0  0  0  0
  5 25  1  0  0  0  0
  5 26  1  0  0  0  0
  6 27  1  0  0  0  0
  6 28  1  0  0  0  0
  7 29  1  0  0  0  0
  7 30  1  0  0  0  0
  8 31  1  0  0  0  0
  8 32  1  0  0  0  0
 11 33  1  0  0  0  0
 11 34  1  0  0  0  0
 11 35  1  0  0  0  0
 13 36  1  0  0  0  0
 13 37  1  0  0  0  0
 13 38  1  0  0  0  0
 15 39  1  0  0  0  0
 15 40  1  0  0  0  0
 15 41  1  0  0  0  0
M  END
> <id>
4086

> <casrn>
3069-40-7

> <smiles (First)>


> <Molecular weight>
234.40785217285156

> <name>
trimethoxy(octyl)silane

> <Outcome>
1

> <Molecule (RDKit Mol) (InChI Code)>
InChI=1S/C11H26O3Si/c1-5-6-7-8-9-10-11-15(12-2,13-3)14-4/h5-11H2,1-4H3

> <reference>
ECHA

> <molecule_form>
A

$$$$

  Mrv1812 01171911372D          

 35 34  0  0  0  0            999 V2000
   -0.2132    0.6885    0.0000 C   0  0  0  0  0  0  0  0  0  0  0  0
    0.5013    1.1010    0.0000 C   0  0  0  0  0  0  0  0  0  0  0  0
    1.2158    0.6885    0.0000 O   0  0  0  0  0  0  0  0  0  0  0  0
    1.9302    1.1010    0.0000 C   0  0  0  0  0  0  0  0  0  0  0  0
    1.9302    1.9260    0.0000 O   0  0  0  0  0  0  0  0  0  0  0  0
    2.6447    0.6885    0.0000 C   0  0  0  0  0  0  0  0  0  0  0  0
    3.3592    1.1010    0.0000 C   0  0  0  0  0  0  0  0  0  0  0  0
    3.3592    1.9260    0.0000 C   0  0  0  0  0  0  0  0  0  0  0  0
    4.0736    0.6885    0.0000 C   0  0  0  0  0  0  0  0  0  0  0  0
    4.7881    1.1010    0.0000 C   0  0  0  0  0  0  0  0  0  0  0  0
    5.5026    1.5135    0.0000 C   0  0  0  0  0  0  0  0  0  0  0  0
    5.2006    0.3865    0.0000 C   0  0  0  0  0  0  0  0  0  0  0  0
    4.3756    1.8155    0.0000 C   0  0  0  0  0  0  0  0  0  0  0  0
   -0.6257    1.4030    0.0000 H   0  0  0  0  0  0  0  0  0  0  0  0
   -0.9276    0.2760    0.0000 H   0  0  0  0  0  0  0  0  0  0  0  0
    0.1993   -0.0260    0.0000 H   0  0  0  0  0  0  0  0  0  0  0  0
    0.8716    1.8382    0.0000 H   0  0  0  0  0  0  0  0  0  0  0  0
    0.1310    1.8382    0.0000 H   0  0  0  0  0  0  0  0  0  0  0  0
    2.2744   -0.0487    0.0000 H   0  0  0  0  0  0  0  0  0  0  0  0
    3.0150   -0.0487    0.0000 H   0  0  0  0  0  0  0  0  0  0  0  0
    2.6447    1.5135    0.0000 H   0  0  0  0  0  0  0  0  0  0  0  0
    4.1561    1.7125    0.0000 H   0  0  0  0  0  0  0  0  0  0  0  0
    3.7717    2.6405    0.0000 H   0  0  0  0  0  0  0  0  0  0  0  0
    2.7758    2.5094    0.0000 H   0  0  0  0  0  0  0  0  0  0  0  0
    3.7034   -0.0487    0.0000 H   0  0  0  0  0  0  0  0  0  0  0  0
    4.4439   -0.0487    0.0000 H   0  0  0  0  0  0  0  0  0  0  0  0
    5.9151    0.7990    0.0000 H   0  0  0  0  0  0  0  0  0  0  0  0
    6.2171    1.9260    0.0000 H   0  0  0  0  0  0  0  0  0  0  0  0
    5.0901    2.2280    0.0000 H   0  0  0  0  0  0  0  0  0  0  0  0
    4.9861   -0.4101    0.0000 H   0  0  0  0  0  0  0  0  0  0  0  0
    5.6125   -0.3283    0.0000 H   0  0  0  0  0  0  0  0  0  0  0  0
    5.9974    0.1727    0.0000 H   0  0  0  0  0  0  0  0  0  0  0  0
    4.6060    2.6076    0.0000 H   0  0  0  0  0  0  0  0  0  0  0  0
    3.9938    2.5468    0.0000 H   0  0  0  0  0  0  0  0  0  0  0  0
    3.5939    2.0793    0.0000 H   0  0  0  0  0  0  0  0  0  0  0  0
  1  2  1  0  0  0  0
  2  3  1  0  0  0  0
  3  4  1  0  0  0  0
  4  5  2  0  0  0  0
  4  6  1  0  0  0  0
  6  7  1  0  0  0  0
  7  8  1  0  0  0  0
  7  9  1  0  0  0  0
  9 10  1  0  0  0  0
 10 11  1  0  0  0  0
 10 12  1  0  0  0  0
 10 13  1  0  0  0  0
  1 14  1  0  0  0  0
  1 15  1  0  0  0  0
  1 16  1  0  0  0  0
  2 17  1  0  0  0  0
  2 18  1  0  0  0  0
  6 19  1  0  0  0  0
  6 20  1  0  0  0  0
  7 21  1  0  0  0  0
  8 22  1  0  0  0  0
  8 23  1  0  0  0  0
  8 24  1  0  0  0  0
  9 25  1  0  0  0  0
  9 26  1  0  0  0  0
 11 27  1  0  0  0  0
 11 28  1  0  0  0  0
 11 29  1  0  0  0  0
 12 30  1  0  0  0  0
 12 31  1  0  0  0  0
 12 32  1  0  0  0  0
 13 33  1  0  0  0  0
 13 34  1  0  0  0  0
 13 35  1  0  0  0  0
M  END
> <id>
3150

> <casrn>
67707-75-9

> <smiles (First)>


> <Molecular weight>
186.2911834716797

> <name>
ethyl 3,5,5-trimethylhexanoate

> <Outcome>
1

> <Molecule (RDKit Mol) (InChI Code)>
InChI=1S/C11H22O2/c1-6-13-10(12)7-9(2)8-11(3,4)5/h9H,6-8H2,1-5H3

> <reference>
ECHA

> <molecule_form>
A

$$$$

  Mrv1812 01171911372D          

 24 23  0  0  0  0            999 V2000
   -2.3349    1.1284    0.0000 C   0  0  0  0  0  0  0  0  0  0  0  0
   -1.6204    0.7159    0.0000 C   0  0  0  0  0  0  0  0  0  0  0  0
   -0.9059    1.1284    0.0000 C   0  0  0  0  0  0  0  0  0  0  0  0
   -0.1915    0.7159    0.0000 C   0  0  0  0  0  0  0  0  0  0  0  0
    0.5230    1.1284    0.0000 C   0  0  0  0  0  0  0  0  0  0  0  0
    1.2375    0.7159    0.0000 C   0  0  0  0  0  0  0  0  0  0  0  0
    1.9519    1.1284    0.0000 O   0  0  0  0  0  0  0  0  0  0  0  0
    2.6664    0.7159    0.0000 C   0  0  0  0  0  0  0  0  0  0  0  0
    3.3809    1.1284    0.0000 C   0  0  0  0  0  0  0  0  0  0  0  0
    2.6664   -0.1091    0.0000 O   0  0  0  0  0  0  0  0  0  0  0  0
   -1.9224    1.8429    0.0000 H   0  0  0  0  0  0  0  0  0  0  0  0
   -3.0493    1.5409    0.0000 H   0  0  0  0  0  0  0  0  0  0  0  0
   -2.7474    0.4140    0.0000 H   0  0  0  0  0  0  0  0  0  0  0  0
   -1.9907   -0.0213    0.0000 H   0  0  0  0  0  0  0  0  0  0  0  0
   -1.2501   -0.0213    0.0000 H   0  0  0  0  0  0  0  0  0  0  0  0
   -0.9059    1.9534    0.0000 H   0  0  0  0  0  0  0  0  0  0  0  0
   -0.1915   -0.1091    0.0000 H   0  0  0  0  0  0  0  0  0  0  0  0
    0.8933    1.8657    0.0000 H   0  0  0  0  0  0  0  0  0  0  0  0
    0.1527    1.8657    0.0000 H   0  0  0  0  0  0  0  0  0  0  0  0
    0.8672   -0.0213    0.0000 H   0  0  0  0  0  0  0  0  0  0  0  0
    1.6077   -0.0213    0.0000 H   0  0  0  0  0  0  0  0  0  0  0  0
    3.7934    0.4140    0.0000 H   0  0  0  0  0  0  0  0  0  0  0  0
    4.0954    1.5409    0.0000 H   0  0  0  0  0  0  0  0  0  0  0  0
    2.9684    1.8429    0.0000 H   0  0  0  0  0  0  0  0  0  0  0  0
  1  2  1  0  0  0  0
  3  2  1  4  0  0  0
  3  4  2  0  0  0  0
  4  5  1  0  0  0  0
  5  6  1  0  0  0  0
  6  7  1  0  0  0  0
  7  8  1  0  0  0  0
  8  9  1  0  0  0  0
  8 10  2  0  0  0  0
  1 11  1  0  0  0  0
  1 12  1  0  0  0  0
  1 13  1  0  0  0  0
  2 14  1  0  0  0  0
  2 15  1  0  0  0  0
  3 16  1  0  0  0  0
  4 17  1  0  0  0  0
  5 18  1  0  0  0  0
  5 19  1  0  0  0  0
  6 20  1  0  0  0  0
  6 21  1  0  0  0  0
  9 22  1  0  0  0  0
  9 23  1  0  0  0  0
  9 24  1  0  0  0  0
M  END
> <id>
202

> <casrn>
3681-71-8

> <smiles (First)>


> <Molecular weight>
142.195556640625

> <name>
(3Z)-hex-3-en-1-yl acetate

> <Outcome>
0

> <Molecule (RDKit Mol) (InChI Code)>
InChI=1S/C8H14O2/c1-3-4-5-6-7-10-8(2)9/h4-5H,3,6-7H2,1-2H3

> <reference>
ECHA

> <molecule_form>
A

$$$$

  Mrv1812 01171911372D          

 11 11  0  0  0  0            999 V2000
    0.4980    2.6013    0.0000 C   0  0  0  0  0  0  0  0  0  0  0  0
    0.4980    1.7763    0.0000 C   0  0  0  0  0  0  0  0  0  0  0  0
    0.4980    0.9513    0.0000 C   0  0  0  0  0  0  0  0  0  0  0  0
    0.9105    0.2368    0.0000 C   0  0  0  0  0  0  0  0  0  0  0  0
    0.0855    0.2368    0.0000 C   0  0  0  0  0  0  0  0  0  0  0  0
    0.4980    3.4263    0.0000 H   0  0  0  0  0  0  0  0  0  0  0  0
   -0.2989    1.1648    0.0000 H   0  0  0  0  0  0  0  0  0  0  0  0
    1.2808   -0.5004    0.0000 H   0  0  0  0  0  0  0  0  0  0  0  0
    1.7341    0.2848    0.0000 H   0  0  0  0  0  0  0  0  0  0  0  0
   -0.7381    0.2848    0.0000 H   0  0  0  0  0  0  0  0  0  0  0  0
   -0.2848   -0.5004    0.0000 H   0  0  0  0  0  0  0  0  0  0  0  0
  1  2  3  0  0  0  0
  2  3  1  0  0  0  0
  3  4  1  0  0  0  0
  4  5  1  0  0  0  0
  3  5  1  0  0  0  0
  1  6  1  0  0  0  0
  3  7  1  0  0  0  0
  4  8  1  0  0  0  0
  4  9  1  0  0  0  0
  5 10  1  0  0  0  0
  5 11  1  0  0  0  0
M  END
> <id>
3207

> <casrn>
6746-94-7

> <smiles (First)>


> <Molecular weight>
66.10114288330078

> <name>
ethynylcyclopropane

> <Outcome>
0

> <Molecule (RDKit Mol) (InChI Code)>
InChI=1S/C5H6/c1-2-5-3-4-5/h1,5H,3-4H2

> <reference>
ECHA

> <molecule_form>
V

$$$$

  Mrv1812 01171911372D          

 56 55  0  0  0  0            999 V2000
    7.8785    5.4408    0.0000 C   0  0  0  0  0  0  0  0  0  0  0  0
    8.5930    5.0283    0.0000 C   0  0  0  0  0  0  0  0  0  0  0  0
    9.3074    5.4408    0.0000 C   0  0  0  0  0  0  0  0  0  0  0  0
   10.0219    5.0283    0.0000 C   0  0  0  0  0  0  0  0  0  0  0  0
   10.7364    5.4408    0.0000 C   0  0  0  0  0  0  0  0  0  0  0  0
   11.4508    5.0283    0.0000 C   0  0  0  0  0  0  0  0  0  0  0  0
   12.1653    5.4408    0.0000 C   0  0  0  0  0  0  0  0  0  0  0  0
   12.8798    5.0283    0.0000 C   0  0  0  0  0  0  0  0  0  0  0  0
   13.5943    5.4408    0.0000 C   0  0  0  0  0  0  0  0  0  0  0  0
   14.3087    5.0283    0.0000 C   0  0  0  0  0  0  0  0  0  0  0  0
   15.0232    5.4408    0.0000 O   0  0  0  0  0  0  0  0  0  0  0  0
   15.7377    5.0283    0.0000 C   0  0  0  0  0  0  0  0  0  0  0  0
   15.7377    4.2033    0.0000 O   0  0  0  0  0  0  0  0  0  0  0  0
   16.4521    5.4408    0.0000 C   0  0  0  0  0  0  0  0  0  0  0  0
   16.4521    6.2658    0.0000 C   0  0  0  0  0  0  0  0  0  0  0  0
   17.1666    6.6783    0.0000 C   0  0  0  0  0  0  0  0  0  0  0  0
   17.1666    5.0283    0.0000 C   0  0  0  0  0  0  0  0  0  0  0  0
   17.8811    5.4408    0.0000 C   0  0  0  0  0  0  0  0  0  0  0  0
   18.5956    5.0283    0.0000 C   0  0  0  0  0  0  0  0  0  0  0  0
   19.3100    5.4408    0.0000 C   0  0  0  0  0  0  0  0  0  0  0  0
    8.2910    6.1552    0.0000 H   0  0  0  0  0  0  0  0  0  0  0  0
    7.1640    5.8533    0.0000 H   0  0  0  0  0  0  0  0  0  0  0  0
    7.4660    4.7263    0.0000 H   0  0  0  0  0  0  0  0  0  0  0  0
    8.2227    4.2910    0.0000 H   0  0  0  0  0  0  0  0  0  0  0  0
    8.9632    4.2910    0.0000 H   0  0  0  0  0  0  0  0  0  0  0  0
    9.6777    6.1780    0.0000 H   0  0  0  0  0  0  0  0  0  0  0  0
    8.9372    6.1780    0.0000 H   0  0  0  0  0  0  0  0  0  0  0  0
    9.6516    4.2910    0.0000 H   0  0  0  0  0  0  0  0  0  0  0  0
   10.3922    4.2910    0.0000 H   0  0  0  0  0  0  0  0  0  0  0  0
   11.1066    6.1780    0.0000 H   0  0  0  0  0  0  0  0  0  0  0  0
   10.3661    6.1780    0.0000 H   0  0  0  0  0  0  0  0  0  0  0  0
   11.0806    4.2910    0.0000 H   0  0  0  0  0  0  0  0  0  0  0  0
   11.8211    4.2910    0.0000 H   0  0  0  0  0  0  0  0  0  0  0  0
   12.5356    6.1780    0.0000 H   0  0  0  0  0  0  0  0  0  0  0  0
   11.7951    6.1780    0.0000 H   0  0  0  0  0  0  0  0  0  0  0  0
   12.5095    4.2910    0.0000 H   0  0  0  0  0  0  0  0  0  0  0  0
   13.2500    4.2910    0.0000 H   0  0  0  0  0  0  0  0  0  0  0  0
   13.9645    6.1780    0.0000 H   0  0  0  0  0  0  0  0  0  0  0  0
   13.2240    6.1780    0.0000 H   0  0  0  0  0  0  0  0  0  0  0  0
   13.9385    4.2910    0.0000 H   0  0  0  0  0  0  0  0  0  0  0  0
   14.6790    4.2910    0.0000 H   0  0  0  0  0  0  0  0  0  0  0  0
   15.7377    5.8533    0.0000 H   0  0  0  0  0  0  0  0  0  0  0  0
   16.3089    7.0782    0.0000 H   0  0  0  0  0  0  0  0  0  0  0  0
   15.8202    6.7961    0.0000 H   0  0  0  0  0  0  0  0  0  0  0  0
   17.3975    5.8862    0.0000 H   0  0  0  0  0  0  0  0  0  0  0  0
   17.9908    6.7142    0.0000 H   0  0  0  0  0  0  0  0  0  0  0  0
   17.3276    7.4874    0.0000 H   0  0  0  0  0  0  0  0  0  0  0  0
   16.7964    4.2910    0.0000 H   0  0  0  0  0  0  0  0  0  0  0  0
   17.5369    4.2910    0.0000 H   0  0  0  0  0  0  0  0  0  0  0  0
   18.3698    6.1054    0.0000 H   0  0  0  0  0  0  0  0  0  0  0  0
   17.8811    4.6158    0.0000 H   0  0  0  0  0  0  0  0  0  0  0  0
   18.7388    4.2158    0.0000 H   0  0  0  0  0  0  0  0  0  0  0  0
   19.2275    4.4980    0.0000 H   0  0  0  0  0  0  0  0  0  0  0  0
   20.0912    5.1756    0.0000 H   0  0  0  0  0  0  0  0  0  0  0  0
   19.7533    6.1366    0.0000 H   0  0  0  0  0  0  0  0  0  0  0  0
   18.7395    6.0367    0.0000 H   0  0  0  0  0  0  0  0  0  0  0  0
  1  2  1  0  0  0  0
  2  3  1  0  0  0  0
  3  4  1  0  0  0  0
  4  5  1  0  0  0  0
  5  6  1  0  0  0  0
  6  7  1  0  0  0  0
  7  8  1  0  0  0  0
  8  9  1  0  0  0  0
  9 10  1  0  0  0  0
 10 11  1  0  0  0  0
 11 12  1  0  0  0  0
 12 13  2  0  0  0  0
 12 14  1  0  0  0  0
 14 15  1  0  0  0  0
 15 16  1  0  0  0  0
 14 17  1  0  0  0  0
 17 18  1  0  0  0  0
 18 19  1  0  0  0  0
 19 20  1  0  0  0  0
  1 21  1  0  0  0  0
  1 22  1  0  0  0  0
  1 23  1  0  0  0  0
  2 24  1  0  0  0  0
  2 25  1  0  0  0  0
  3 26  1  0  0  0  0
  3 27  1  0  0  0  0
  4 28  1  0  0  0  0
  4 29  1  0  0  0  0
  5 30  1  0  0  0  0
  5 31  1  0  0  0  0
  6 32  1  0  0  0  0
  6 33  1  0  0  0  0
  7 34  1  0  0  0  0
  7 35  1  0  0  0  0
  8 36  1  0  0  0  0
  8 37  1  0  0  0  0
  9 38  1  0  0  0  0
  9 39  1  0  0  0  0
 10 40  1  0  0  0  0
 10 41  1  0  0  0  0
 14 42  1  0  0  0  0
 15 43  1  0  0  0  0
 15 44  1  0  0  0  0
 16 45  1  0  0  0  0
 16 46  1  0  0  0  0
 16 47  1  0  0  0  0
 17 48  1  0  0  0  0
 17 49  1  0  0  0  0
 18 50  1  0  0  0  0
 18 51  1  0  0  0  0
 19 52  1  0  0  0  0
 19 53  1  0  0  0  0
 20 54  1  0  0  0  0
 20 55  1  0  0  0  0
 20 56  1  0  0  0  0
M  END
> <id>
2898

> <casrn>
93777-46-9

> <smiles (First)>


> <Molecular weight>
284.47723388671875

> <name>
decyl 2-ethylhexanoate

> <Outcome>
0

> <Molecule (RDKit Mol) (InChI Code)>
InChI=1S/C18H36O2/c1-4-7-9-10-11-12-13-14-16-20-18(19)17(6-3)15-8-5-2/h17H,4-16H2,1-3H3

> <reference>
ECHA

> <molecule_form>
A

$$$$

  Mrv1812 01171911372D          

 17 17  0  0  0  0            999 V2000
    0.7145    1.2355    0.0000 C   0  0  0  0  0  0  0  0  0  0  0  0
    1.4289    0.8230    0.0000 C   0  0  0  0  0  0  0  0  0  0  0  0
    1.4289   -0.0020    0.0000 C   0  0  0  0  0  0  0  0  0  0  0  0
    0.7145   -0.4145    0.0000 N   0  0  0  0  0  0  0  0  0  0  0  0
    0.0000   -0.0020    0.0000 C   0  0  0  0  0  0  0  0  0  0  0  0
    0.0000    0.8230    0.0000 C   0  0  0  0  0  0  0  0  0  0  0  0
    1.0847    1.9727    0.0000 H   0  0  0  0  0  0  0  0  0  0  0  0
    0.3442    1.9727    0.0000 H   0  0  0  0  0  0  0  0  0  0  0  0
    2.2525    0.8709    0.0000 H   0  0  0  0  0  0  0  0  0  0  0  0
    1.8823    1.5122    0.0000 H   0  0  0  0  0  0  0  0  0  0  0  0
    1.8823   -0.6913    0.0000 H   0  0  0  0  0  0  0  0  0  0  0  0
    2.2525   -0.0500    0.0000 H   0  0  0  0  0  0  0  0  0  0  0  0
    0.7145   -1.2395    0.0000 H   0  0  0  0  0  0  0  0  0  0  0  0
   -0.8236   -0.0500    0.0000 H   0  0  0  0  0  0  0  0  0  0  0  0
   -0.4533   -0.6913    0.0000 H   0  0  0  0  0  0  0  0  0  0  0  0
   -0.4533    1.5122    0.0000 H   0  0  0  0  0  0  0  0  0  0  0  0
   -0.8236    0.8709    0.0000 H   0  0  0  0  0  0  0  0  0  0  0  0
  1  2  1  0  0  0  0
  2  3  1  0  0  0  0
  3  4  1  0  0  0  0
  4  5  1  0  0  0  0
  5  6  1  0  0  0  0
  1  6  1  0  0  0  0
  1  7  1  0  0  0  0
  1  8  1  0  0  0  0
  2  9  1  0  0  0  0
  2 10  1  0  0  0  0
  3 11  1  0  0  0  0
  3 12  1  0  0  0  0
  4 13  1  0  0  0  0
  5 14  1  0  0  0  0
  5 15  1  0  0  0  0
  6 16  1  0  0  0  0
  6 17  1  0  0  0  0
M  END
> <id>
3738; 3739

> <casrn>
110-89-4

> <smiles (First)>


> <Molecular weight>
85.14753723144531

> <name>
piperidine

> <Outcome>
1

> <Molecule (RDKit Mol) (InChI Code)>
InChI=1S/C5H11N/c1-2-4-6-5-3-1/h6H,1-5H2

> <reference>
ECHA

> <molecule_form>
V

$$$$

  Mrv1812 01171911372D          

 28 28  0  0  0  0            999 V2000
    0.0937    3.5476    0.0000 C   0  0  0  0  0  0  0  0  0  0  0  0
    0.8082    3.1351    0.0000 C   0  0  0  0  0  0  0  0  0  0  0  0
    0.8082    2.3101    0.0000 C   0  0  0  0  0  0  0  0  0  0  0  0
   -0.0168    2.3101    0.0000 C   0  0  0  0  0  0  0  0  0  0  0  0
    1.6332    2.3101    0.0000 C   0  0  0  0  0  0  0  0  0  0  0  0
    0.8082    1.4851    0.0000 C   0  0  0  0  0  0  0  0  0  0  0  0
    1.5227    1.0726    0.0000 C   0  0  0  0  0  0  0  0  0  0  0  0
    1.5227    0.2476    0.0000 C   0  0  0  0  0  0  0  0  0  0  0  0
    0.8082   -0.1649    0.0000 C   0  0  0  0  0  0  0  0  0  0  0  0
    0.8082   -0.9899    0.0000 O   0  0  0  0  0  0  0  0  0  0  0  0
    0.0937    0.2476    0.0000 C   0  0  0  0  0  0  0  0  0  0  0  0
    0.0937    1.0726    0.0000 C   0  0  0  0  0  0  0  0  0  0  0  0
    0.5062    4.2621    0.0000 H   0  0  0  0  0  0  0  0  0  0  0  0
   -0.6208    3.9601    0.0000 H   0  0  0  0  0  0  0  0  0  0  0  0
   -0.3188    2.8332    0.0000 H   0  0  0  0  0  0  0  0  0  0  0  0
    1.6318    3.1831    0.0000 H   0  0  0  0  0  0  0  0  0  0  0  0
    1.2615    3.8244    0.0000 H   0  0  0  0  0  0  0  0  0  0  0  0
   -0.8418    2.3101    0.0000 H   0  0  0  0  0  0  0  0  0  0  0  0
   -0.4293    1.5957    0.0000 H   0  0  0  0  0  0  0  0  0  0  0  0
    0.3957    1.5957    0.0000 H   0  0  0  0  0  0  0  0  0  0  0  0
    1.3178    1.5478    0.0000 H   0  0  0  0  0  0  0  0  0  0  0  0
    2.2170    1.7272    0.0000 H   0  0  0  0  0  0  0  0  0  0  0  0
    2.3950    2.6268    0.0000 H   0  0  0  0  0  0  0  0  0  0  0  0
    2.2801    0.7457    0.0000 H   0  0  0  0  0  0  0  0  0  0  0  0
    1.9557   -0.4546    0.0000 H   0  0  0  0  0  0  0  0  0  0  0  0
    0.0937   -1.4024    0.0000 H   0  0  0  0  0  0  0  0  0  0  0  0
   -0.6208   -0.1649    0.0000 H   0  0  0  0  0  0  0  0  0  0  0  0
   -0.6685    0.7569    0.0000 H   0  0  0  0  0  0  0  0  0  0  0  0
  1  2  1  0  0  0  0
  2  3  1  0  0  0  0
  3  4  1  0  0  0  0
  3  5  1  0  0  0  0
  3  6  1  0  0  0  0
  6  7  4  0  0  0  0
  7  8  4  0  0  0  0
  8  9  4  0  0  0  0
  9 10  1  0  0  0  0
  9 11  4  0  0  0  0
 11 12  4  0  0  0  0
  6 12  4  0  0  0  0
  1 13  1  0  0  0  0
  1 14  1  0  0  0  0
  1 15  1  0  0  0  0
  2 16  1  0  0  0  0
  2 17  1  0  0  0  0
  4 18  1  0  0  0  0
  4 19  1  0  0  0  0
  4 20  1  0  0  0  0
  5 21  1  0  0  0  0
  5 22  1  0  0  0  0
  5 23  1  0  0  0  0
  7 24  1  0  0  0  0
  8 25  1  0  0  0  0
 10 26  1  0  0  0  0
 11 27  1  0  0  0  0
 12 28  1  0  0  0  0
M  END
> <id>
1816

> <casrn>
80-46-6

> <smiles (First)>


> <Molecular weight>
164.244140625

> <name>
4-(2-methylbutan-2-yl)phenol

> <Outcome>
0

> <Molecule (RDKit Mol) (InChI Code)>
InChI=1S/C11H16O/c1-4-11(2,3)9-5-7-10(12)8-6-9/h5-8,12H,4H2,1-3H3

> <reference>
ECHA

> <molecule_form>
A

$$$$

  Mrv1812 01171911372D          

 28 27  0  0  0  0            999 V2000
   -1.3664   -3.6145    0.0000 C   0  0  0  0  0  0  0  0  0  0  0  0
   -0.6519   -3.2020    0.0000 C   0  0  0  0  0  0  0  0  0  0  0  0
   -0.6519   -2.3770    0.0000 O   0  0  0  0  0  0  0  0  0  0  0  0
    0.0626   -1.9645    0.0000 C   0  0  0  0  0  0  0  0  0  0  0  0
    0.0626   -1.1395    0.0000 C   0  0  0  0  0  0  0  0  0  0  0  0
    0.7771   -0.7270    0.0000 O   0  0  0  0  0  0  0  0  0  0  0  0
    0.7771    0.0980    0.0000 C   0  0  0  0  0  0  0  0  0  0  0  0
    0.7771    0.9230    0.0000 C   0  0  0  0  0  0  0  0  0  0  0  0
    1.6021    0.0980    0.0000 C   0  0  0  0  0  0  0  0  0  0  0  0
   -0.0479    0.0980    0.0000 C   0  0  0  0  0  0  0  0  0  0  0  0
   -1.7789   -2.9000    0.0000 H   0  0  0  0  0  0  0  0  0  0  0  0
   -2.0808   -4.0270    0.0000 H   0  0  0  0  0  0  0  0  0  0  0  0
   -0.9539   -4.3290    0.0000 H   0  0  0  0  0  0  0  0  0  0  0  0
   -0.1985   -3.8913    0.0000 H   0  0  0  0  0  0  0  0  0  0  0  0
    0.1717   -3.2500    0.0000 H   0  0  0  0  0  0  0  0  0  0  0  0
    0.5159   -2.6538    0.0000 H   0  0  0  0  0  0  0  0  0  0  0  0
    0.8862   -2.0125    0.0000 H   0  0  0  0  0  0  0  0  0  0  0  0
   -0.3908   -0.4502    0.0000 H   0  0  0  0  0  0  0  0  0  0  0  0
   -0.7610   -1.0915    0.0000 H   0  0  0  0  0  0  0  0  0  0  0  0
    1.6021    0.9230    0.0000 H   0  0  0  0  0  0  0  0  0  0  0  0
    0.7771    1.7480    0.0000 H   0  0  0  0  0  0  0  0  0  0  0  0
   -0.0479    0.9230    0.0000 H   0  0  0  0  0  0  0  0  0  0  0  0
    1.2863   -0.6642    0.0000 H   0  0  0  0  0  0  0  0  0  0  0  0
    2.1854   -0.4854    0.0000 H   0  0  0  0  0  0  0  0  0  0  0  0
    2.3643    0.4137    0.0000 H   0  0  0  0  0  0  0  0  0  0  0  0
   -0.6737    0.6357    0.0000 H   0  0  0  0  0  0  0  0  0  0  0  0
   -0.8636   -0.0262    0.0000 H   0  0  0  0  0  0  0  0  0  0  0  0
    0.3519   -0.6236    0.0000 H   0  0  0  0  0  0  0  0  0  0  0  0
  1  2  1  0  0  0  0
  2  3  1  0  0  0  0
  3  4  1  0  0  0  0
  4  5  1  0  0  0  0
  5  6  1  0  0  0  0
  6  7  1  0  0  0  0
  7  8  1  0  0  0  0
  7  9  1  0  0  0  0
  7 10  1  0  0  0  0
  1 11  1  0  0  0  0
  1 12  1  0  0  0  0
  1 13  1  0  0  0  0
  2 14  1  0  0  0  0
  2 15  1  0  0  0  0
  4 16  1  0  0  0  0
  4 17  1  0  0  0  0
  5 18  1  0  0  0  0
  5 19  1  0  0  0  0
  8 20  1  0  0  0  0
  8 21  1  0  0  0  0
  8 22  1  0  0  0  0
  9 23  1  0  0  0  0
  9 24  1  0  0  0  0
  9 25  1  0  0  0  0
 10 26  1  0  0  0  0
 10 27  1  0  0  0  0
 10 28  1  0  0  0  0
M  END
> <id>
1319

> <casrn>
51422-54-9

> <smiles (First)>


> <Molecular weight>
146.22732543945312

> <name>
2-(2-ethoxyethoxy)-2-methylpropane

> <Outcome>
1

> <Molecule (RDKit Mol) (InChI Code)>
InChI=1S/C8H18O2/c1-5-9-6-7-10-8(2,3)4/h5-7H2,1-4H3

> <reference>
ECHA

> <molecule_form>
V

$$$$

  Mrv1812 01171911372D          

 50 54  0  0  0  0            999 V2000
    3.6542   -1.1628    0.0000 N   0  0  0  0  0  0  0  0  0  0  0  0
    3.6542   -0.3378    0.0000 C   0  0  0  0  0  0  0  0  0  0  0  0
    4.3687    0.0747    0.0000 C   0  0  0  0  0  0  0  0  0  0  0  0
    5.0831   -0.3378    0.0000 O   0  0  0  0  0  0  0  0  0  0  0  0
    5.7976    0.0747    0.0000 C   0  0  0  0  0  0  0  0  0  0  0  0
    5.7976    0.8997    0.0000 C   0  0  0  0  0  0  0  0  0  0  0  0
    6.5121    1.3122    0.0000 C   0  0  0  0  0  0  0  0  0  0  0  0
    7.2265    0.8997    0.0000 C   0  0  0  0  0  0  0  0  0  0  0  0
    7.2265    0.0747    0.0000 C   0  0  0  0  0  0  0  0  0  0  0  0
    6.5121   -0.3378    0.0000 C   0  0  0  0  0  0  0  0  0  0  0  0
    4.3687    0.8997    0.0000 C   0  0  0  0  0  0  0  0  0  0  0  0
    5.0831    1.3122    0.0000 O   0  0  0  0  0  0  0  0  0  0  0  0
    5.0831    2.1372    0.0000 C   0  0  0  0  0  0  0  0  0  0  0  0
    4.3687    2.5497    0.0000 C   0  0  0  0  0  0  0  0  0  0  0  0
    4.3687    3.3747    0.0000 C   0  0  0  0  0  0  0  0  0  0  0  0
    5.0831    3.7872    0.0000 C   0  0  0  0  0  0  0  0  0  0  0  0
    5.7976    3.3747    0.0000 C   0  0  0  0  0  0  0  0  0  0  0  0
    5.7976    2.5497    0.0000 C   0  0  0  0  0  0  0  0  0  0  0  0
    3.6542    1.3122    0.0000 C   0  0  0  0  0  0  0  0  0  0  0  0
    3.6542    2.1372    0.0000 N   0  0  0  0  0  0  0  0  0  0  0  0
    2.9397    0.8997    0.0000 C   0  0  0  0  0  0  0  0  0  0  0  0
    2.9397    0.0747    0.0000 C   0  0  0  0  0  0  0  0  0  0  0  0
    2.2252   -0.3378    0.0000 C   0  0  0  0  0  0  0  0  0  0  0  0
    2.2252   -1.1628    0.0000 O   0  0  0  0  0  0  0  0  0  0  0  0
    1.5108    0.0747    0.0000 C   0  0  0  0  0  0  0  0  0  0  0  0
    0.7963   -0.3378    0.0000 C   0  0  0  0  0  0  0  0  0  0  0  0
    0.0818    0.0747    0.0000 C   0  0  0  0  0  0  0  0  0  0  0  0
    0.0818    0.8997    0.0000 C   0  0  0  0  0  0  0  0  0  0  0  0
    0.7963    1.3122    0.0000 C   0  0  0  0  0  0  0  0  0  0  0  0
    1.5108    0.8997    0.0000 C   0  0  0  0  0  0  0  0  0  0  0  0
    2.2252    1.3122    0.0000 C   0  0  0  0  0  0  0  0  0  0  0  0
    2.2252    2.1372    0.0000 O   0  0  0  0  0  0  0  0  0  0  0  0
    2.9397   -1.5753    0.0000 H   0  0  0  0  0  0  0  0  0  0  0  0
    4.3687   -1.5753    0.0000 H   0  0  0  0  0  0  0  0  0  0  0  0
    5.0831    0.4872    0.0000 H   0  0  0  0  0  0  0  0  0  0  0  0
    6.5121    2.1372    0.0000 H   0  0  0  0  0  0  0  0  0  0  0  0
    7.9410    1.3122    0.0000 H   0  0  0  0  0  0  0  0  0  0  0  0
    7.9410   -0.3378    0.0000 H   0  0  0  0  0  0  0  0  0  0  0  0
    6.5121   -1.1628    0.0000 H   0  0  0  0  0  0  0  0  0  0  0  0
    4.3687    1.7247    0.0000 H   0  0  0  0  0  0  0  0  0  0  0  0
    3.6542    3.7872    0.0000 H   0  0  0  0  0  0  0  0  0  0  0  0
    5.0831    4.6122    0.0000 H   0  0  0  0  0  0  0  0  0  0  0  0
    6.5121    3.7872    0.0000 H   0  0  0  0  0  0  0  0  0  0  0  0
    5.7976    1.7247    0.0000 H   0  0  0  0  0  0  0  0  0  0  0  0
    3.2008    2.8265    0.0000 H   0  0  0  0  0  0  0  0  0  0  0  0
    2.8306    2.1852    0.0000 H   0  0  0  0  0  0  0  0  0  0  0  0
    0.7963   -1.1628    0.0000 H   0  0  0  0  0  0  0  0  0  0  0  0
   -0.6326   -0.3378    0.0000 H   0  0  0  0  0  0  0  0  0  0  0  0
   -0.6326    1.3122    0.0000 H   0  0  0  0  0  0  0  0  0  0  0  0
    0.7963    2.1372    0.0000 H   0  0  0  0  0  0  0  0  0  0  0  0
  1  2  1  0  0  0  0
  2  3  4  0  0  0  0
  3  4  1  0  0  0  0
  4  5  1  0  0  0  0
  5  6  4  0  0  0  0
  6  7  4  0  0  0  0
  7  8  4  0  0  0  0
  8  9  4  0  0  0  0
  9 10  4  0  0  0  0
  5 10  4  0  0  0  0
  3 11  4  0  0  0  0
 11 12  1  0  0  0  0
 12 13  1  0  0  0  0
 13 14  4  0  0  0  0
 14 15  4  0  0  0  0
 15 16  4  0  0  0  0
 16 17  4  0  0  0  0
 17 18  4  0  0  0  0
 13 18  4  0  0  0  0
 11 19  4  0  0  0  0
 19 20  1  0  0  0  0
 19 21  4  0  0  0  0
 21 22  4  0  0  0  0
  2 22  4  0  0  0  0
 22 23  1  0  0  0  0
 23 24  2  0  0  0  0
 23 25  1  0  0  0  0
 25 26  4  0  0  0  0
 26 27  4  0  0  0  0
 27 28  4  0  0  0  0
 28 29  4  0  0  0  0
 29 30  4  0  0  0  0
 25 30  4  0  0  0  0
 30 31  1  0  0  0  0
 21 31  1  0  0  0  0
 31 32  2  0  0  0  0
  1 33  1  0  0  0  0
  1 34  1  0  0  0  0
  6 35  1  0  0  0  0
  7 36  1  0  0  0  0
  8 37  1  0  0  0  0
  9 38  1  0  0  0  0
 10 39  1  0  0  0  0
 14 40  1  0  0  0  0
 15 41  1  0  0  0  0
 16 42  1  0  0  0  0
 17 43  1  0  0  0  0
 18 44  1  0  0  0  0
 20 45  1  0  0  0  0
 20 46  1  0  0  0  0
 26 47  1  0  0  0  0
 27 48  1  0  0  0  0
 28 49  1  0  0  0  0
 29 50  1  0  0  0  0
M  END
> <id>
1053

> <casrn>
6408-72-6

> <smiles (First)>


> <Molecular weight>
422.43212890625

> <name>
1,4-diamino-2,3-diphenoxy-9,10-dihydroanthracene-9,10-dione

> <Outcome>
0

> <Molecule (RDKit Mol) (InChI Code)>
InChI=1S/C26H18N2O4/c27-21-19-20(24(30)18-14-8-7-13-17(18)23(19)29)22(28)26(32-16-11-5-2-6-12-16)25(21)31-15-9-3-1-4-10-15/h1-14H,27-28H2

> <reference>
ECHA

> <molecule_form>
A

$$$$

  Mrv1812 01171911372D          

 21 20  0  0  0  0            999 V2000
    2.9980    2.5559    0.0000 O   0  0  0  0  0  0  0  0  0  0  0  0
    3.7125    2.1434    0.0000 C   0  0  0  0  0  0  0  0  0  0  0  0
    3.7125    1.3184    0.0000 O   0  0  0  0  0  0  0  0  0  0  0  0
    4.4270    2.5559    0.0000 C   0  0  0  0  0  0  0  0  0  0  0  0
    5.1414    2.1434    0.0000 C   0  0  0  0  0  0  0  0  0  0  0  0
    5.8559    2.5559    0.0000 S   0  0  0  0  0  0  0  0  0  0  0  0
    6.5704    2.1434    0.0000 C   0  0  0  0  0  0  0  0  0  0  0  0
    7.2849    2.5559    0.0000 C   0  0  0  0  0  0  0  0  0  0  0  0
    7.9993    2.1434    0.0000 C   0  0  0  0  0  0  0  0  0  0  0  0
    8.7138    2.5559    0.0000 O   0  0  0  0  0  0  0  0  0  0  0  0
    7.9993    1.3184    0.0000 O   0  0  0  0  0  0  0  0  0  0  0  0
    2.9980    0.9059    0.0000 H   0  0  0  0  0  0  0  0  0  0  0  0
    4.7972    3.2931    0.0000 H   0  0  0  0  0  0  0  0  0  0  0  0
    4.0567    3.2931    0.0000 H   0  0  0  0  0  0  0  0  0  0  0  0
    4.7712    1.4062    0.0000 H   0  0  0  0  0  0  0  0  0  0  0  0
    5.5117    1.4062    0.0000 H   0  0  0  0  0  0  0  0  0  0  0  0
    6.2001    1.4062    0.0000 H   0  0  0  0  0  0  0  0  0  0  0  0
    6.9406    1.4062    0.0000 H   0  0  0  0  0  0  0  0  0  0  0  0
    7.6551    3.2931    0.0000 H   0  0  0  0  0  0  0  0  0  0  0  0
    6.9146    3.2931    0.0000 H   0  0  0  0  0  0  0  0  0  0  0  0
    7.2849    0.9059    0.0000 H   0  0  0  0  0  0  0  0  0  0  0  0
  1  2  2  0  0  0  0
  2  3  1  0  0  0  0
  2  4  1  0  0  0  0
  4  5  1  0  0  0  0
  5  6  1  0  0  0  0
  6  7  1  0  0  0  0
  7  8  1  0  0  0  0
  8  9  1  0  0  0  0
  9 10  2  0  0  0  0
  9 11  1  0  0  0  0
  3 12  1  0  0  0  0
  4 13  1  0  0  0  0
  4 14  1  0  0  0  0
  5 15  1  0  0  0  0
  5 16  1  0  0  0  0
  7 17  1  0  0  0  0
  7 18  1  0  0  0  0
  8 19  1  0  0  0  0
  8 20  1  0  0  0  0
 11 21  1  0  0  0  0
M  END
> <id>
1762

> <casrn>
111-17-1

> <smiles (First)>


> <Molecular weight>
178.20620727539062

> <name>
3-[(2-carboxyethyl)sulfanyl]propanoic acid

> <Outcome>
0

> <Molecule (RDKit Mol) (InChI Code)>
InChI=1S/C6H10O4S/c7-5(8)1-3-11-4-2-6(9)10/h1-4H2,(H,7,8)(H,9,10)

> <reference>
ECHA

> <molecule_form>
A

$$$$

  Mrv1812 01171911372D          

 50 52  0  0  0  0            999 V2000
   -0.7527   -2.9433    0.0000 C   0  0  0  0  0  0  0  0  0  0  0  0
   -0.0382   -2.5308    0.0000 C   0  0  0  0  0  0  0  0  0  0  0  0
    0.6763   -2.9433    0.0000 N   0  0  0  0  0  0  0  0  0  0  0  0
    0.6763   -3.7683    0.0000 C   0  0  0  0  0  0  0  0  0  0  0  0
    1.3907   -4.1808    0.0000 C   0  0  0  0  0  0  0  0  0  0  0  0
    1.3907   -2.5308    0.0000 C   0  0  0  0  0  0  0  0  0  0  0  0
    1.3907   -1.7058    0.0000 C   0  0  0  0  0  0  0  0  0  0  0  0
    2.1052   -1.2933    0.0000 C   0  0  0  0  0  0  0  0  0  0  0  0
    2.8197   -1.7058    0.0000 C   0  0  0  0  0  0  0  0  0  0  0  0
    3.5341   -1.2933    0.0000 N   0  0  0  0  0  0  0  0  0  0  0  0
    4.2486   -1.7058    0.0000 C   0  0  0  0  0  0  0  0  0  0  0  0
    4.9631   -1.2933    0.0000 C   0  0  0  0  0  0  0  0  0  0  0  0
    5.6776   -1.7058    0.0000 C   0  0  0  0  0  0  0  0  0  0  0  0
    5.6776   -2.5308    0.0000 C   0  0  0  0  0  0  0  0  0  0  0  0
    6.3920   -2.9433    0.0000 N   0  0  0  0  0  0  0  0  0  0  0  0
    6.3920   -3.7683    0.0000 C   0  0  0  0  0  0  0  0  0  0  0  0
    7.1065   -4.1808    0.0000 C   0  0  0  0  0  0  0  0  0  0  0  0
    7.1065   -2.5308    0.0000 C   0  0  0  0  0  0  0  0  0  0  0  0
    7.8210   -2.9433    0.0000 C   0  0  0  0  0  0  0  0  0  0  0  0
    4.9631   -2.9433    0.0000 C   0  0  0  0  0  0  0  0  0  0  0  0
    4.2486   -2.5308    0.0000 C   0  0  0  0  0  0  0  0  0  0  0  0
    3.5341   -2.9433    0.0000 O   0  3  0  0  0  0  0  0  0  0  0  0
    2.8197   -2.5308    0.0000 C   0  0  0  0  0  0  0  0  0  0  0  0
    2.1052   -2.9433    0.0000 C   0  0  0  0  0  0  0  0  0  0  0  0
   -1.1652   -2.2288    0.0000 H   0  0  0  0  0  0  0  0  0  0  0  0
   -1.4672   -3.3558    0.0000 H   0  0  0  0  0  0  0  0  0  0  0  0
   -0.3402   -3.6578    0.0000 H   0  0  0  0  0  0  0  0  0  0  0  0
    0.3321   -1.7935    0.0000 H   0  0  0  0  0  0  0  0  0  0  0  0
   -0.4085   -1.7935    0.0000 H   0  0  0  0  0  0  0  0  0  0  0  0
   -0.1473   -3.8163    0.0000 H   0  0  0  0  0  0  0  0  0  0  0  0
    0.2229   -4.4576    0.0000 H   0  0  0  0  0  0  0  0  0  0  0  0
    0.9782   -4.8953    0.0000 H   0  0  0  0  0  0  0  0  0  0  0  0
    2.1052   -4.5933    0.0000 H   0  0  0  0  0  0  0  0  0  0  0  0
    1.8032   -3.4663    0.0000 H   0  0  0  0  0  0  0  0  0  0  0  0
    0.6763   -1.2933    0.0000 H   0  0  0  0  0  0  0  0  0  0  0  0
    2.1052   -0.4683    0.0000 H   0  0  0  0  0  0  0  0  0  0  0  0
    4.9631   -0.4683    0.0000 H   0  0  0  0  0  0  0  0  0  0  0  0
    6.3920   -1.2933    0.0000 H   0  0  0  0  0  0  0  0  0  0  0  0
    5.5684   -3.8163    0.0000 H   0  0  0  0  0  0  0  0  0  0  0  0
    5.9387   -4.4576    0.0000 H   0  0  0  0  0  0  0  0  0  0  0  0
    6.6940   -4.8953    0.0000 H   0  0  0  0  0  0  0  0  0  0  0  0
    7.8210   -4.5933    0.0000 H   0  0  0  0  0  0  0  0  0  0  0  0
    7.5190   -3.4663    0.0000 H   0  0  0  0  0  0  0  0  0  0  0  0
    7.4768   -1.7935    0.0000 H   0  0  0  0  0  0  0  0  0  0  0  0
    6.7362   -1.7935    0.0000 H   0  0  0  0  0  0  0  0  0  0  0  0
    8.3232   -3.5978    0.0000 H   0  0  0  0  0  0  0  0  0  0  0  0
    8.6179   -2.7298    0.0000 H   0  0  0  0  0  0  0  0  0  0  0  0
    7.9287   -2.1253    0.0000 H   0  0  0  0  0  0  0  0  0  0  0  0
    4.9631   -3.7683    0.0000 H   0  0  0  0  0  0  0  0  0  0  0  0
    2.6886   -3.5267    0.0000 H   0  0  0  0  0  0  0  0  0  0  0  0
  1  2  1  0  0  0  0
  2  3  1  0  0  0  0
  3  4  1  0  0  0  0
  4  5  1  0  0  0  0
  3  6  1  0  0  0  0
  6  7  4  0  0  0  0
  7  8  4  0  0  0  0
  8  9  4  0  0  0  0
  9 10  4  0  0  0  0
 10 11  4  0  0  0  0
 11 12  4  0  0  0  0
 12 13  4  0  0  0  0
 13 14  4  0  0  0  0
 14 15  1  0  0  0  0
 15 16  1  0  0  0  0
 16 17  1  0  0  0  0
 15 18  1  0  0  0  0
 18 19  1  0  0  0  0
 14 20  4  0  0  0  0
 20 21  4  0  0  0  0
 11 21  4  0  0  0  0
 21 22  4  0  0  0  0
 22 23  4  0  0  0  0
  9 23  4  0  0  0  0
 23 24  4  0  0  0  0
  6 24  4  0  0  0  0
  1 25  1  0  0  0  0
  1 26  1  0  0  0  0
  1 27  1  0  0  0  0
  2 28  1  0  0  0  0
  2 29  1  0  0  0  0
  4 30  1  0  0  0  0
  4 31  1  0  0  0  0
  5 32  1  0  0  0  0
  5 33  1  0  0  0  0
  5 34  1  0  0  0  0
  7 35  1  0  0  0  0
  8 36  1  0  0  0  0
 12 37  1  0  0  0  0
 13 38  1  0  0  0  0
 16 39  1  0  0  0  0
 16 40  1  0  0  0  0
 17 41  1  0  0  0  0
 17 42  1  0  0  0  0
 17 43  1  0  0  0  0
 18 44  1  0  0  0  0
 18 45  1  0  0  0  0
 19 46  1  0  0  0  0
 19 47  1  0  0  0  0
 19 48  1  0  0  0  0
 20 49  1  0  0  0  0
 24 50  1  0  0  0  0
M  CHG  1  22   1
M  END
> <id>
1743

> <casrn>
73570-52-2

> <smiles (First)>


> <Molecular weight>
324.43994140625

> <name>
3,7-bis(diethylamino)-5??????-phenoxazin-5-ylium nitrate

> <Outcome>
1

> <Molecule (RDKit Mol) (InChI Code)>
InChI=1S/C20H26N3O/c1-5-22(6-2)15-9-11-17-19(13-15)24-20-14-16(23(7-3)8-4)10-12-18(20)21-17/h9-14H,5-8H2,1-4H3/q+1

> <reference>
ECHA

> <molecule_form>
A

$$$$

  Mrv1812 01171911372D          

 18 17  0  0  0  0            999 V2000
    1.7605    1.8454    0.0000 C   0  0  0  0  0  0  0  0  0  0  0  0
    2.4750    1.4329    0.0000 C   0  0  0  0  0  0  0  0  0  0  0  0
    3.1895    1.8454    0.0000 O   0  0  0  0  0  0  0  0  0  0  0  0
    3.9039    1.4329    0.0000 C   0  0  0  0  0  0  0  0  0  0  0  0
    3.9039    0.6079    0.0000 O   0  0  0  0  0  0  0  0  0  0  0  0
    4.6184    1.8454    0.0000 O   0  0  0  0  0  0  0  0  0  0  0  0
    5.3329    1.4329    0.0000 C   0  0  0  0  0  0  0  0  0  0  0  0
    6.0474    1.8454    0.0000 C   0  0  0  0  0  0  0  0  0  0  0  0
    2.1730    2.5598    0.0000 H   0  0  0  0  0  0  0  0  0  0  0  0
    1.0461    2.2579    0.0000 H   0  0  0  0  0  0  0  0  0  0  0  0
    1.3480    1.1309    0.0000 H   0  0  0  0  0  0  0  0  0  0  0  0
    2.1047    0.6956    0.0000 H   0  0  0  0  0  0  0  0  0  0  0  0
    2.8453    0.6956    0.0000 H   0  0  0  0  0  0  0  0  0  0  0  0
    4.9626    0.6956    0.0000 H   0  0  0  0  0  0  0  0  0  0  0  0
    5.7031    0.6956    0.0000 H   0  0  0  0  0  0  0  0  0  0  0  0
    6.4599    1.1309    0.0000 H   0  0  0  0  0  0  0  0  0  0  0  0
    6.7618    2.2579    0.0000 H   0  0  0  0  0  0  0  0  0  0  0  0
    5.6349    2.5598    0.0000 H   0  0  0  0  0  0  0  0  0  0  0  0
  1  2  1  0  0  0  0
  2  3  1  0  0  0  0
  3  4  1  0  0  0  0
  4  5  2  0  0  0  0
  4  6  1  0  0  0  0
  6  7  1  0  0  0  0
  7  8  1  0  0  0  0
  1  9  1  0  0  0  0
  1 10  1  0  0  0  0
  1 11  1  0  0  0  0
  2 12  1  0  0  0  0
  2 13  1  0  0  0  0
  7 14  1  0  0  0  0
  7 15  1  0  0  0  0
  8 16  1  0  0  0  0
  8 17  1  0  0  0  0
  8 18  1  0  0  0  0
M  END
> <id>
2965

> <casrn>
105-58-8

> <smiles (First)>


> <Molecular weight>
118.131103515625

> <name>
diethyl carbonate

> <Outcome>
1

> <Molecule (RDKit Mol) (InChI Code)>
InChI=1S/C5H10O3/c1-3-7-5(6)8-4-2/h3-4H2,1-2H3

> <reference>
ECHA

> <molecule_form>
V

$$$$

  Mrv1812 01171911372D          

 18 18  0  0  0  0            999 V2000
    1.4289    2.4750    0.0000 O   0  0  0  0  0  0  0  0  0  0  0  0
    0.7145    2.0625    0.0000 N   0  0  0  0  0  0  0  0  0  0  0  0
   -0.0000    2.4750    0.0000 O   0  0  0  0  0  0  0  0  0  0  0  0
    0.7145    1.2375    0.0000 C   0  0  0  0  0  0  0  0  0  0  0  0
    1.4289    0.8250    0.0000 C   0  0  0  0  0  0  0  0  0  0  0  0
    1.4289   -0.0000    0.0000 C   0  0  0  0  0  0  0  0  0  0  0  0
    0.7145   -0.4125    0.0000 C   0  0  0  0  0  0  0  0  0  0  0  0
   -0.0000   -0.0000    0.0000 C   0  0  0  0  0  0  0  0  0  0  0  0
   -0.7145   -0.4125    0.0000 S   0  0  0  0  0  0  0  0  0  0  0  0
   -1.4289   -0.8250    0.0000 O   0  0  0  0  0  0  0  0  0  0  0  0
   -1.1270    0.3020    0.0000 O   0  0  0  0  0  0  0  0  0  0  0  0
   -0.3020   -1.1270    0.0000 O   0  0  0  0  0  0  0  0  0  0  0  0
   -0.0000    0.8250    0.0000 C   0  0  0  0  0  0  0  0  0  0  0  0
    2.1434    1.2375    0.0000 H   0  0  0  0  0  0  0  0  0  0  0  0
    2.1434   -0.4125    0.0000 H   0  0  0  0  0  0  0  0  0  0  0  0
    0.7145   -1.2375    0.0000 H   0  0  0  0  0  0  0  0  0  0  0  0
   -0.7145   -1.8414    0.0000 H   0  0  0  0  0  0  0  0  0  0  0  0
   -0.7145    1.2375    0.0000 H   0  0  0  0  0  0  0  0  0  0  0  0
  1  2  2  0  0  0  0
  2  3  2  0  0  0  0
  2  4  1  0  0  0  0
  4  5  4  0  0  0  0
  5  6  4  0  0  0  0
  6  7  4  0  0  0  0
  7  8  4  0  0  0  0
  8  9  1  0  0  0  0
  9 10  2  0  0  0  0
  9 11  2  0  0  0  0
  9 12  1  0  0  0  0
  8 13  4  0  0  0  0
  4 13  4  0  0  0  0
  5 14  1  0  0  0  0
  6 15  1  0  0  0  0
  7 16  1  0  0  0  0
 12 17  1  0  0  0  0
 13 18  1  0  0  0  0
M  END
> <id>
3857; 3858

> <casrn>
127-68-4

> <smiles (First)>


> <Molecular weight>
202.16465759277344

> <name>
sodium 3-nitrobenzene-1-sulfonate

> <Outcome>
0

> <Molecule (RDKit Mol) (InChI Code)>
InChI=1S/C6H5NO5S/c8-7(9)5-2-1-3-6(4-5)13(10,11)12/h1-4H,(H,10,11,12)

> <reference>
ECHA

> <molecule_form>
A

$$$$

  Mrv1812 01171911372D          

 30 29  0  0  0  0            999 V2000
   -1.4191   -2.8293    0.0000 C   0  0  0  0  0  0  0  0  0  0  0  0
   -0.7046   -2.4168    0.0000 C   0  0  0  0  0  0  0  0  0  0  0  0
   -0.2921   -3.1313    0.0000 C   0  0  0  0  0  0  0  0  0  0  0  0
   -1.1171   -1.7024    0.0000 C   0  0  0  0  0  0  0  0  0  0  0  0
    0.0098   -2.0043    0.0000 O   0  0  0  0  0  0  0  0  0  0  0  0
    0.0098   -1.1793    0.0000 O   0  0  0  0  0  0  0  0  0  0  0  0
    0.7243   -0.7668    0.0000 C   0  0  0  0  0  0  0  0  0  0  0  0
    1.4388   -1.1793    0.0000 O   0  0  0  0  0  0  0  0  0  0  0  0
    0.7243    0.0582    0.0000 C   0  0  0  0  0  0  0  0  0  0  0  0
    0.7243    0.8832    0.0000 C   0  0  0  0  0  0  0  0  0  0  0  0
    1.5493    0.0582    0.0000 C   0  0  0  0  0  0  0  0  0  0  0  0
   -0.1007    0.0582    0.0000 C   0  0  0  0  0  0  0  0  0  0  0  0
   -1.8316   -2.1149    0.0000 H   0  0  0  0  0  0  0  0  0  0  0  0
   -2.1336   -3.2418    0.0000 H   0  0  0  0  0  0  0  0  0  0  0  0
   -1.0066   -3.5438    0.0000 H   0  0  0  0  0  0  0  0  0  0  0  0
   -0.1845   -3.9493    0.0000 H   0  0  0  0  0  0  0  0  0  0  0  0
    0.5047   -3.3448    0.0000 H   0  0  0  0  0  0  0  0  0  0  0  0
    0.2101   -2.4768    0.0000 H   0  0  0  0  0  0  0  0  0  0  0  0
   -0.2992   -1.5947    0.0000 H   0  0  0  0  0  0  0  0  0  0  0  0
   -0.9036   -0.9055    0.0000 H   0  0  0  0  0  0  0  0  0  0  0  0
   -1.7717   -1.2001    0.0000 H   0  0  0  0  0  0  0  0  0  0  0  0
    1.5493    0.8832    0.0000 H   0  0  0  0  0  0  0  0  0  0  0  0
    0.7243    1.7082    0.0000 H   0  0  0  0  0  0  0  0  0  0  0  0
   -0.1007    0.8832    0.0000 H   0  0  0  0  0  0  0  0  0  0  0  0
    1.2336   -0.7040    0.0000 H   0  0  0  0  0  0  0  0  0  0  0  0
    2.1327   -0.5252    0.0000 H   0  0  0  0  0  0  0  0  0  0  0  0
    2.3115    0.3739    0.0000 H   0  0  0  0  0  0  0  0  0  0  0  0
   -0.8629    0.3739    0.0000 H   0  0  0  0  0  0  0  0  0  0  0  0
   -0.6841   -0.5252    0.0000 H   0  0  0  0  0  0  0  0  0  0  0  0
    0.2150   -0.7040    0.0000 H   0  0  0  0  0  0  0  0  0  0  0  0
  1  2  1  0  0  0  0
  2  3  1  0  0  0  0
  2  4  1  0  0  0  0
  2  5  1  0  0  0  0
  5  6  1  0  0  0  0
  6  7  1  0  0  0  0
  7  8  2  0  0  0  0
  7  9  1  0  0  0  0
  9 10  1  0  0  0  0
  9 11  1  0  0  0  0
  9 12  1  0  0  0  0
  1 13  1  0  0  0  0
  1 14  1  0  0  0  0
  1 15  1  0  0  0  0
  3 16  1  0  0  0  0
  3 17  1  0  0  0  0
  3 18  1  0  0  0  0
  4 19  1  0  0  0  0
  4 20  1  0  0  0  0
  4 21  1  0  0  0  0
 10 22  1  0  0  0  0
 10 23  1  0  0  0  0
 10 24  1  0  0  0  0
 11 25  1  0  0  0  0
 11 26  1  0  0  0  0
 11 27  1  0  0  0  0
 12 28  1  0  0  0  0
 12 29  1  0  0  0  0
 12 30  1  0  0  0  0
M  END
> <id>
3910

> <casrn>
927-07-1

> <smiles (First)>


> <Molecular weight>
174.2374267578125

> <name>
tert-butyl 2,2-dimethylpropaneperoxoate

> <Outcome>
0

> <Molecule (RDKit Mol) (InChI Code)>
InChI=1S/C9H18O3/c1-8(2,3)7(10)11-12-9(4,5)6/h1-6H3

> <reference>
ECHA

> <molecule_form>
A

$$$$

  Mrv1812 01171911372D          

 36 35  0  0  0  0            999 V2000
    0.3316    2.6664    0.0000 O   0  0  0  0  0  0  0  0  0  0  0  0
    0.3316    1.8414    0.0000 C   0  0  0  0  0  0  0  0  0  0  0  0
    1.0461    1.4289    0.0000 N   0  0  0  0  0  0  0  0  0  0  0  0
    1.7605    1.8414    0.0000 C   0  0  0  0  0  0  0  0  0  0  0  0
    2.4750    1.4289    0.0000 C   0  0  0  0  0  0  0  0  0  0  0  0
    3.1895    1.8414    0.0000 C   0  0  0  0  0  0  0  0  0  0  0  0
    3.9039    1.4289    0.0000 C   0  0  0  0  0  0  0  0  0  0  0  0
    4.6184    1.8414    0.0000 C   0  0  0  0  0  0  0  0  0  0  0  0
    5.3329    1.4289    0.0000 C   0  0  0  0  0  0  0  0  0  0  0  0
    6.0474    1.8414    0.0000 N   0  0  0  0  0  0  0  0  0  0  0  0
    6.7618    1.4289    0.0000 C   0  0  0  0  0  0  0  0  0  0  0  0
    6.7618    0.6039    0.0000 O   0  0  0  0  0  0  0  0  0  0  0  0
    7.4763    1.8414    0.0000 S   0  0  0  0  0  0  0  0  0  0  0  0
    8.1908    2.2539    0.0000 O   0  0  0  0  0  0  0  0  0  0  0  0
    7.0638    2.5559    0.0000 O   0  0  0  0  0  0  0  0  0  0  0  0
    7.8888    1.1269    0.0000 O   0  0  0  0  0  0  0  0  0  0  0  0
   -0.3829    1.4289    0.0000 S   0  0  0  0  0  0  0  0  0  0  0  0
   -1.0974    1.0164    0.0000 O   0  0  0  0  0  0  0  0  0  0  0  0
   -0.7954    2.1434    0.0000 O   0  0  0  0  0  0  0  0  0  0  0  0
    0.0296    0.7144    0.0000 O   0  0  0  0  0  0  0  0  0  0  0  0
    1.0461    0.6039    0.0000 H   0  0  0  0  0  0  0  0  0  0  0  0
    2.1308    2.5786    0.0000 H   0  0  0  0  0  0  0  0  0  0  0  0
    1.3903    2.5786    0.0000 H   0  0  0  0  0  0  0  0  0  0  0  0
    2.1047    0.6917    0.0000 H   0  0  0  0  0  0  0  0  0  0  0  0
    2.8453    0.6917    0.0000 H   0  0  0  0  0  0  0  0  0  0  0  0
    3.5597    2.5786    0.0000 H   0  0  0  0  0  0  0  0  0  0  0  0
    2.8192    2.5786    0.0000 H   0  0  0  0  0  0  0  0  0  0  0  0
    3.5337    0.6917    0.0000 H   0  0  0  0  0  0  0  0  0  0  0  0
    4.2742    0.6917    0.0000 H   0  0  0  0  0  0  0  0  0  0  0  0
    4.9887    2.5786    0.0000 H   0  0  0  0  0  0  0  0  0  0  0  0
    4.2482    2.5786    0.0000 H   0  0  0  0  0  0  0  0  0  0  0  0
    4.9626    0.6917    0.0000 H   0  0  0  0  0  0  0  0  0  0  0  0
    5.7031    0.6917    0.0000 H   0  0  0  0  0  0  0  0  0  0  0  0
    6.0474    2.6664    0.0000 H   0  0  0  0  0  0  0  0  0  0  0  0
    7.4763    0.4125    0.0000 H   0  0  0  0  0  0  0  0  0  0  0  0
   -0.3829   -0.0000    0.0000 H   0  0  0  0  0  0  0  0  0  0  0  0
  1  2  2  0  0  0  0
  2  3  1  0  0  0  0
  3  4  1  0  0  0  0
  4  5  1  0  0  0  0
  5  6  1  0  0  0  0
  6  7  1  0  0  0  0
  7  8  1  0  0  0  0
  8  9  1  0  0  0  0
  9 10  1  0  0  0  0
 10 11  1  0  0  0  0
 11 12  2  0  0  0  0
 11 13  1  0  0  0  0
 13 14  2  0  0  0  0
 13 15  2  0  0  0  0
 13 16  1  0  0  0  0
  2 17  1  0  0  0  0
 17 18  2  0  0  0  0
 17 19  2  0  0  0  0
 17 20  1  0  0  0  0
  3 21  1  0  0  0  0
  4 22  1  0  0  0  0
  4 23  1  0  0  0  0
  5 24  1  0  0  0  0
  5 25  1  0  0  0  0
  6 26  1  0  0  0  0
  6 27  1  0  0  0  0
  7 28  1  0  0  0  0
  7 29  1  0  0  0  0
  8 30  1  0  0  0  0
  8 31  1  0  0  0  0
  9 32  1  0  0  0  0
  9 33  1  0  0  0  0
 10 34  1  0  0  0  0
 16 35  1  0  0  0  0
 20 36  1  0  0  0  0
M  END
> <id>
4196

> <casrn>
38632-47-2

> <smiles (First)>


> <Molecular weight>
330.3353576660156

> <name>
unnamed [38632-47-2]

> <Outcome>
0

> <Molecule (RDKit Mol) (InChI Code)>
InChI=1S/C8H16N2O8S2/c11-7(19(13,14)15)9-5-3-1-2-4-6-10-8(12)20(16,17)18/h1-6H2,(H,9,11)(H,10,12)(H,13,14,15)(H,16,17,18)

> <reference>
ECHA

> <molecule_form>
A

$$$$

  Mrv1812 01171911372D          

 36 39  0  0  0  0            999 V2000
    0.8165   -1.1438    0.0000 O   0  0  0  0  0  0  0  0  0  0  0  0
    0.8165   -0.3188    0.0000 C   0  0  0  0  0  0  0  0  0  0  0  0
    0.1021    0.0937    0.0000 N   0  0  0  0  0  0  0  0  0  0  0  0
   -0.6124   -0.3188    0.0000 C   0  0  0  0  0  0  0  0  0  0  0  0
   -0.6124   -1.1438    0.0000 C   0  0  0  0  0  0  0  0  0  0  0  0
   -0.1999   -1.8583    0.0000 C   0  0  0  0  0  0  0  0  0  0  0  0
   -1.0249   -1.8583    0.0000 O   0  0  0  0  0  0  0  0  0  0  0  0
    0.1021    0.9187    0.0000 C   0  0  0  0  0  0  0  0  0  0  0  0
   -0.6124    1.3312    0.0000 O   0  0  0  0  0  0  0  0  0  0  0  0
    0.8165    1.3312    0.0000 N   0  0  0  0  0  0  0  0  0  0  0  0
    0.8165    2.1562    0.0000 C   0  0  0  0  0  0  0  0  0  0  0  0
    1.5310    2.5687    0.0000 C   0  0  0  0  0  0  0  0  0  0  0  0
    1.9435    3.2831    0.0000 C   0  0  0  0  0  0  0  0  0  0  0  0
    2.3560    2.5687    0.0000 O   0  0  0  0  0  0  0  0  0  0  0  0
    1.5310    0.9187    0.0000 C   0  0  0  0  0  0  0  0  0  0  0  0
    2.2455    1.3312    0.0000 O   0  0  0  0  0  0  0  0  0  0  0  0
    1.5310    0.0937    0.0000 N   0  0  0  0  0  0  0  0  0  0  0  0
    2.2455   -0.3188    0.0000 C   0  0  0  0  0  0  0  0  0  0  0  0
    2.2455   -1.1438    0.0000 C   0  0  0  0  0  0  0  0  0  0  0  0
    2.6580   -1.8583    0.0000 C   0  0  0  0  0  0  0  0  0  0  0  0
    1.8330   -1.8583    0.0000 O   0  0  0  0  0  0  0  0  0  0  0  0
   -1.0657    0.3704    0.0000 H   0  0  0  0  0  0  0  0  0  0  0  0
   -1.4360   -0.2709    0.0000 H   0  0  0  0  0  0  0  0  0  0  0  0
   -1.4093   -0.9303    0.0000 H   0  0  0  0  0  0  0  0  0  0  0  0
    0.1704   -2.5956    0.0000 H   0  0  0  0  0  0  0  0  0  0  0  0
    0.6237   -1.8103    0.0000 H   0  0  0  0  0  0  0  0  0  0  0  0
    0.3632    2.8454    0.0000 H   0  0  0  0  0  0  0  0  0  0  0  0
   -0.0071    2.2041    0.0000 H   0  0  0  0  0  0  0  0  0  0  0  0
    1.7445    1.7718    0.0000 H   0  0  0  0  0  0  0  0  0  0  0  0
    2.3969    3.9724    0.0000 H   0  0  0  0  0  0  0  0  0  0  0  0
    1.4902    3.9724    0.0000 H   0  0  0  0  0  0  0  0  0  0  0  0
    3.0691   -0.2709    0.0000 H   0  0  0  0  0  0  0  0  0  0  0  0
    2.6988    0.3704    0.0000 H   0  0  0  0  0  0  0  0  0  0  0  0
    1.4486   -0.9303    0.0000 H   0  0  0  0  0  0  0  0  0  0  0  0
    3.0282   -2.5956    0.0000 H   0  0  0  0  0  0  0  0  0  0  0  0
    3.4816   -1.8103    0.0000 H   0  0  0  0  0  0  0  0  0  0  0  0
  1  2  2  0  0  0  0
  2  3  1  0  0  0  0
  3  4  1  0  0  0  0
  4  5  1  0  0  0  0
  5  6  1  0  0  0  0
  6  7  1  0  0  0  0
  5  7  1  0  0  0  0
  3  8  1  0  0  0  0
  8  9  2  0  0  0  0
  8 10  1  0  0  0  0
 10 11  1  0  0  0  0
 11 12  1  0  0  0  0
 12 13  1  0  0  0  0
 13 14  1  0  0  0  0
 12 14  1  0  0  0  0
 10 15  1  0  0  0  0
 15 16  2  0  0  0  0
 15 17  1  0  0  0  0
  2 17  1  0  0  0  0
 17 18  1  0  0  0  0
 18 19  1  0  0  0  0
 19 20  1  0  0  0  0
 20 21  1  0  0  0  0
 19 21  1  0  0  0  0
  4 22  1  0  0  0  0
  4 23  1  0  0  0  0
  5 24  1  0  0  0  0
  6 25  1  0  0  0  0
  6 26  1  0  0  0  0
 11 27  1  0  0  0  0
 11 28  1  0  0  0  0
 12 29  1  0  0  0  0
 13 30  1  0  0  0  0
 13 31  1  0  0  0  0
 18 32  1  0  0  0  0
 18 33  1  0  0  0  0
 19 34  1  0  0  0  0
 20 35  1  0  0  0  0
 20 36  1  0  0  0  0
M  END
> <id>
964; 965; 963; 962

> <casrn>
2451-62-9

> <smiles (First)>


> <Molecular weight>
297.2640075683594

> <name>
1,3,5-tris(oxiran-2-ylmethyl)-1,3,5-triazinane-2,4,6-trione

> <Outcome>
1

> <Molecule (RDKit Mol) (InChI Code)>
InChI=1S/C12H15N3O6/c16-10-13(1-7-4-19-7)11(17)15(3-9-6-21-9)12(18)14(10)2-8-5-20-8/h7-9H,1-6H2

> <reference>
ECHA

> <molecule_form>
A

$$$$

  Mrv1812 01171911372D          

158157  0  0  0  0            999 V2000
   26.5174   16.1811    0.0000 C   0  0  0  0  0  0  0  0  0  0  0  0
   27.2319   15.7686    0.0000 C   0  0  0  0  0  0  0  0  0  0  0  0
   27.9463   16.1811    0.0000 C   0  0  0  0  0  0  0  0  0  0  0  0
   28.6608   15.7686    0.0000 C   0  0  0  0  0  0  0  0  0  0  0  0
   29.3753   16.1811    0.0000 C   0  0  0  0  0  0  0  0  0  0  0  0
   30.0898   15.7686    0.0000 C   0  0  0  0  0  0  0  0  0  0  0  0
   30.8042   16.1811    0.0000 C   0  0  0  0  0  0  0  0  0  0  0  0
   31.5187   15.7686    0.0000 C   0  0  0  0  0  0  0  0  0  0  0  0
   32.2332   16.1811    0.0000 C   0  0  0  0  0  0  0  0  0  0  0  0
   32.9476   15.7686    0.0000 C   0  0  0  0  0  0  0  0  0  0  0  0
   33.6621   16.1811    0.0000 C   0  0  0  0  0  0  0  0  0  0  0  0
   34.3766   15.7686    0.0000 C   0  0  0  0  0  0  0  0  0  0  0  0
   35.0910   16.1811    0.0000 C   0  0  0  0  0  0  0  0  0  0  0  0
   35.8055   15.7686    0.0000 C   0  0  0  0  0  0  0  0  0  0  0  0
   36.5200   16.1811    0.0000 C   0  0  0  0  0  0  0  0  0  0  0  0
   37.2345   15.7686    0.0000 C   0  0  0  0  0  0  0  0  0  0  0  0
   37.9489   16.1811    0.0000 C   0  0  0  0  0  0  0  0  0  0  0  0
   38.6634   15.7686    0.0000 C   0  0  0  0  0  0  0  0  0  0  0  0
   38.6634   14.9436    0.0000 O   0  0  0  0  0  0  0  0  0  0  0  0
   39.3779   16.1811    0.0000 O   0  0  0  0  0  0  0  0  0  0  0  0
   40.0923   15.7686    0.0000 C   0  0  0  0  0  0  0  0  0  0  0  0
   40.0923   14.9436    0.0000 C   0  0  0  0  0  0  0  0  0  0  0  0
   39.3779   14.5311    0.0000 C   0  0  0  0  0  0  0  0  0  0  0  0
   39.3779   13.7061    0.0000 C   0  0  0  0  0  0  0  0  0  0  0  0
   38.6634   13.2936    0.0000 C   0  0  0  0  0  0  0  0  0  0  0  0
   38.6634   12.4686    0.0000 C   0  0  0  0  0  0  0  0  0  0  0  0
   37.9489   12.0561    0.0000 C   0  0  0  0  0  0  0  0  0  0  0  0
   40.8068   16.1811    0.0000 C   0  0  0  0  0  0  0  0  0  0  0  0
   41.5213   15.7686    0.0000 C   0  0  0  0  0  0  0  0  0  0  0  0
   42.2358   16.1811    0.0000 C   0  0  0  0  0  0  0  0  0  0  0  0
   42.9502   15.7686    0.0000 C   0  0  0  0  0  0  0  0  0  0  0  0
   43.6647   16.1811    0.0000 C   0  0  0  0  0  0  0  0  0  0  0  0
   44.3792   15.7686    0.0000 C   0  0  0  0  0  0  0  0  0  0  0  0
   45.0936   16.1811    0.0000 C   0  0  0  0  0  0  0  0  0  0  0  0
   45.8081   15.7686    0.0000 C   0  0  0  0  0  0  0  0  0  0  0  0
   46.5226   16.1811    0.0000 C   0  0  0  0  0  0  0  0  0  0  0  0
   47.2371   15.7686    0.0000 C   0  0  0  0  0  0  0  0  0  0  0  0
   47.9515   16.1811    0.0000 C   0  0  0  0  0  0  0  0  0  0  0  0
   47.9515   17.0061    0.0000 O   0  0  0  0  0  0  0  0  0  0  0  0
   48.6660   15.7686    0.0000 O   0  0  0  0  0  0  0  0  0  0  0  0
   49.3805   16.1811    0.0000 C   0  0  0  0  0  0  0  0  0  0  0  0
   50.0949   15.7686    0.0000 C   0  0  0  0  0  0  0  0  0  0  0  0
   50.8094   16.1811    0.0000 C   0  0  0  0  0  0  0  0  0  0  0  0
   51.5239   15.7686    0.0000 C   0  0  0  0  0  0  0  0  0  0  0  0
   52.2384   16.1811    0.0000 C   0  0  0  0  0  0  0  0  0  0  0  0
   52.9528   15.7686    0.0000 C   0  0  0  0  0  0  0  0  0  0  0  0
   53.6673   16.1811    0.0000 C   0  0  0  0  0  0  0  0  0  0  0  0
   54.3818   15.7686    0.0000 C   0  0  0  0  0  0  0  0  0  0  0  0
   55.0962   16.1811    0.0000 C   0  0  0  0  0  0  0  0  0  0  0  0
   55.8107   15.7686    0.0000 C   0  0  0  0  0  0  0  0  0  0  0  0
   56.5252   16.1811    0.0000 C   0  0  0  0  0  0  0  0  0  0  0  0
   57.2396   15.7686    0.0000 C   0  0  0  0  0  0  0  0  0  0  0  0
   57.9541   16.1811    0.0000 C   0  0  0  0  0  0  0  0  0  0  0  0
   58.6686   15.7686    0.0000 C   0  0  0  0  0  0  0  0  0  0  0  0
   59.3831   16.1811    0.0000 C   0  0  0  0  0  0  0  0  0  0  0  0
   58.6686   14.9436    0.0000 C   0  0  0  0  0  0  0  0  0  0  0  0
   26.9299   16.8956    0.0000 H   0  0  0  0  0  0  0  0  0  0  0  0
   25.8029   16.5936    0.0000 H   0  0  0  0  0  0  0  0  0  0  0  0
   26.1049   15.4666    0.0000 H   0  0  0  0  0  0  0  0  0  0  0  0
   26.8616   15.0313    0.0000 H   0  0  0  0  0  0  0  0  0  0  0  0
   27.6021   15.0313    0.0000 H   0  0  0  0  0  0  0  0  0  0  0  0
   28.3166   16.9183    0.0000 H   0  0  0  0  0  0  0  0  0  0  0  0
   27.5761   16.9183    0.0000 H   0  0  0  0  0  0  0  0  0  0  0  0
   28.2906   15.0313    0.0000 H   0  0  0  0  0  0  0  0  0  0  0  0
   29.0311   15.0313    0.0000 H   0  0  0  0  0  0  0  0  0  0  0  0
   29.7455   16.9183    0.0000 H   0  0  0  0  0  0  0  0  0  0  0  0
   29.0050   16.9183    0.0000 H   0  0  0  0  0  0  0  0  0  0  0  0
   29.7195   15.0313    0.0000 H   0  0  0  0  0  0  0  0  0  0  0  0
   30.4600   15.0313    0.0000 H   0  0  0  0  0  0  0  0  0  0  0  0
   31.1745   16.9183    0.0000 H   0  0  0  0  0  0  0  0  0  0  0  0
   30.4340   16.9183    0.0000 H   0  0  0  0  0  0  0  0  0  0  0  0
   31.1484   15.0313    0.0000 H   0  0  0  0  0  0  0  0  0  0  0  0
   31.8890   15.0313    0.0000 H   0  0  0  0  0  0  0  0  0  0  0  0
   32.6034   16.9183    0.0000 H   0  0  0  0  0  0  0  0  0  0  0  0
   31.8629   16.9183    0.0000 H   0  0  0  0  0  0  0  0  0  0  0  0
   32.5774   15.0313    0.0000 H   0  0  0  0  0  0  0  0  0  0  0  0
   33.3179   15.0313    0.0000 H   0  0  0  0  0  0  0  0  0  0  0  0
   34.0324   16.9183    0.0000 H   0  0  0  0  0  0  0  0  0  0  0  0
   33.2918   16.9183    0.0000 H   0  0  0  0  0  0  0  0  0  0  0  0
   34.0063   15.0313    0.0000 H   0  0  0  0  0  0  0  0  0  0  0  0
   34.7468   15.0313    0.0000 H   0  0  0  0  0  0  0  0  0  0  0  0
   35.4613   16.9183    0.0000 H   0  0  0  0  0  0  0  0  0  0  0  0
   34.7208   16.9183    0.0000 H   0  0  0  0  0  0  0  0  0  0  0  0
   35.4353   15.0313    0.0000 H   0  0  0  0  0  0  0  0  0  0  0  0
   36.1758   15.0313    0.0000 H   0  0  0  0  0  0  0  0  0  0  0  0
   36.8902   16.9183    0.0000 H   0  0  0  0  0  0  0  0  0  0  0  0
   36.1497   16.9183    0.0000 H   0  0  0  0  0  0  0  0  0  0  0  0
   36.8642   15.0313    0.0000 H   0  0  0  0  0  0  0  0  0  0  0  0
   37.6047   15.0313    0.0000 H   0  0  0  0  0  0  0  0  0  0  0  0
   38.3192   16.9183    0.0000 H   0  0  0  0  0  0  0  0  0  0  0  0
   37.5787   16.9183    0.0000 H   0  0  0  0  0  0  0  0  0  0  0  0
   39.3779   15.3561    0.0000 H   0  0  0  0  0  0  0  0  0  0  0  0
   40.5457   14.2543    0.0000 H   0  0  0  0  0  0  0  0  0  0  0  0
   40.9159   14.8956    0.0000 H   0  0  0  0  0  0  0  0  0  0  0  0
   40.0923   14.1186    0.0000 H   0  0  0  0  0  0  0  0  0  0  0  0
   38.6634   14.1186    0.0000 H   0  0  0  0  0  0  0  0  0  0  0  0
   39.5211   12.8936    0.0000 H   0  0  0  0  0  0  0  0  0  0  0  0
   40.0099   13.1758    0.0000 H   0  0  0  0  0  0  0  0  0  0  0  0
   37.8882   13.5758    0.0000 H   0  0  0  0  0  0  0  0  0  0  0  0
   37.8882   13.0114    0.0000 H   0  0  0  0  0  0  0  0  0  0  0  0
   38.6459   11.6438    0.0000 H   0  0  0  0  0  0  0  0  0  0  0  0
   39.3598   12.0262    0.0000 H   0  0  0  0  0  0  0  0  0  0  0  0
   37.2166   12.4360    0.0000 H   0  0  0  0  0  0  0  0  0  0  0  0
   37.2456   11.6248    0.0000 H   0  0  0  0  0  0  0  0  0  0  0  0
   37.9555   11.2311    0.0000 H   0  0  0  0  0  0  0  0  0  0  0  0
   41.1771   16.9183    0.0000 H   0  0  0  0  0  0  0  0  0  0  0  0
   40.4366   16.9183    0.0000 H   0  0  0  0  0  0  0  0  0  0  0  0
   41.1510   15.0313    0.0000 H   0  0  0  0  0  0  0  0  0  0  0  0
   41.8915   15.0313    0.0000 H   0  0  0  0  0  0  0  0  0  0  0  0
   42.6060   16.9183    0.0000 H   0  0  0  0  0  0  0  0  0  0  0  0
   41.8655   16.9183    0.0000 H   0  0  0  0  0  0  0  0  0  0  0  0
   42.5800   15.0313    0.0000 H   0  0  0  0  0  0  0  0  0  0  0  0
   43.3205   15.0313    0.0000 H   0  0  0  0  0  0  0  0  0  0  0  0
   44.0350   16.9183    0.0000 H   0  0  0  0  0  0  0  0  0  0  0  0
   43.2944   16.9183    0.0000 H   0  0  0  0  0  0  0  0  0  0  0  0
   44.0089   15.0313    0.0000 H   0  0  0  0  0  0  0  0  0  0  0  0
   44.7494   15.0313    0.0000 H   0  0  0  0  0  0  0  0  0  0  0  0
   45.4639   16.9183    0.0000 H   0  0  0  0  0  0  0  0  0  0  0  0
   44.7234   16.9183    0.0000 H   0  0  0  0  0  0  0  0  0  0  0  0
   45.4379   15.0313    0.0000 H   0  0  0  0  0  0  0  0  0  0  0  0
   46.1784   15.0313    0.0000 H   0  0  0  0  0  0  0  0  0  0  0  0
   46.8928   16.9183    0.0000 H   0  0  0  0  0  0  0  0  0  0  0  0
   46.1523   16.9183    0.0000 H   0  0  0  0  0  0  0  0  0  0  0  0
   46.8668   15.0313    0.0000 H   0  0  0  0  0  0  0  0  0  0  0  0
   47.6073   15.0313    0.0000 H   0  0  0  0  0  0  0  0  0  0  0  0
   49.7507   16.9183    0.0000 H   0  0  0  0  0  0  0  0  0  0  0  0
   49.0102   16.9183    0.0000 H   0  0  0  0  0  0  0  0  0  0  0  0
   49.7247   15.0313    0.0000 H   0  0  0  0  0  0  0  0  0  0  0  0
   50.4652   15.0313    0.0000 H   0  0  0  0  0  0  0  0  0  0  0  0
   51.1797   16.9183    0.0000 H   0  0  0  0  0  0  0  0  0  0  0  0
   50.4392   16.9183    0.0000 H   0  0  0  0  0  0  0  0  0  0  0  0
   51.1536   15.0313    0.0000 H   0  0  0  0  0  0  0  0  0  0  0  0
   51.8941   15.0313    0.0000 H   0  0  0  0  0  0  0  0  0  0  0  0
   52.6086   16.9183    0.0000 H   0  0  0  0  0  0  0  0  0  0  0  0
   51.8681   16.9183    0.0000 H   0  0  0  0  0  0  0  0  0  0  0  0
   52.5826   15.0313    0.0000 H   0  0  0  0  0  0  0  0  0  0  0  0
   53.3231   15.0313    0.0000 H   0  0  0  0  0  0  0  0  0  0  0  0
   54.0376   16.9183    0.0000 H   0  0  0  0  0  0  0  0  0  0  0  0
   53.2970   16.9183    0.0000 H   0  0  0  0  0  0  0  0  0  0  0  0
   54.0115   15.0313    0.0000 H   0  0  0  0  0  0  0  0  0  0  0  0
   54.7520   15.0313    0.0000 H   0  0  0  0  0  0  0  0  0  0  0  0
   55.4665   16.9183    0.0000 H   0  0  0  0  0  0  0  0  0  0  0  0
   54.7260   16.9183    0.0000 H   0  0  0  0  0  0  0  0  0  0  0  0
   55.4404   15.0313    0.0000 H   0  0  0  0  0  0  0  0  0  0  0  0
   56.1810   15.0313    0.0000 H   0  0  0  0  0  0  0  0  0  0  0  0
   56.8954   16.9183    0.0000 H   0  0  0  0  0  0  0  0  0  0  0  0
   56.1549   16.9183    0.0000 H   0  0  0  0  0  0  0  0  0  0  0  0
   56.8694   15.0313    0.0000 H   0  0  0  0  0  0  0  0  0  0  0  0
   57.6099   15.0313    0.0000 H   0  0  0  0  0  0  0  0  0  0  0  0
   58.3244   16.9183    0.0000 H   0  0  0  0  0  0  0  0  0  0  0  0
   57.5839   16.9183    0.0000 H   0  0  0  0  0  0  0  0  0  0  0  0
   58.6686   16.5936    0.0000 H   0  0  0  0  0  0  0  0  0  0  0  0
   59.5966   15.3842    0.0000 H   0  0  0  0  0  0  0  0  0  0  0  0
   60.2081   16.1811    0.0000 H   0  0  0  0  0  0  0  0  0  0  0  0
   59.5966   16.9780    0.0000 H   0  0  0  0  0  0  0  0  0  0  0  0
   57.8436   14.9436    0.0000 H   0  0  0  0  0  0  0  0  0  0  0  0
   58.6686   14.1186    0.0000 H   0  0  0  0  0  0  0  0  0  0  0  0
   59.4936   14.9436    0.0000 H   0  0  0  0  0  0  0  0  0  0  0  0
  1  2  1  0  0  0  0
  2  3  1  0  0  0  0
  3  4  1  0  0  0  0
  4  5  1  0  0  0  0
  5  6  1  0  0  0  0
  6  7  1  0  0  0  0
  7  8  1  0  0  0  0
  8  9  1  0  0  0  0
  9 10  1  0  0  0  0
 10 11  1  0  0  0  0
 11 12  1  0  0  0  0
 12 13  1  0  0  0  0
 13 14  1  0  0  0  0
 14 15  1  0  0  0  0
 15 16  1  0  0  0  0
 16 17  1  0  0  0  0
 17 18  1  0  0  0  0
 18 19  2  0  0  0  0
 18 20  1  0  0  0  0
 20 21  1  0  0  0  0
 21 22  1  0  0  0  0
 22 23  1  0  0  0  0
 23 24  1  0  0  0  0
 24 25  1  0  0  0  0
 25 26  1  0  0  0  0
 26 27  1  0  0  0  0
 21 28  1  0  0  0  0
 28 29  1  0  0  0  0
 29 30  1  0  0  0  0
 30 31  1  0  0  0  0
 31 32  1  0  0  0  0
 32 33  1  0  0  0  0
 33 34  1  0  0  0  0
 34 35  1  0  0  0  0
 35 36  1  0  0  0  0
 36 37  1  0  0  0  0
 37 38  1  0  0  0  0
 38 39  2  0  0  0  0
 38 40  1  0  0  0  0
 40 41  1  0  0  0  0
 41 42  1  0  0  0  0
 42 43  1  0  0  0  0
 43 44  1  0  0  0  0
 44 45  1  0  0  0  0
 45 46  1  0  0  0  0
 46 47  1  0  0  0  0
 47 48  1  0  0  0  0
 48 49  1  0  0  0  0
 49 50  1  0  0  0  0
 50 51  1  0  0  0  0
 51 52  1  0  0  0  0
 52 53  1  0  0  0  0
 53 54  1  0  0  0  0
 54 55  1  0  0  0  0
 54 56  1  0  0  0  0
  1 57  1  0  0  0  0
  1 58  1  0  0  0  0
  1 59  1  0  0  0  0
  2 60  1  0  0  0  0
  2 61  1  0  0  0  0
  3 62  1  0  0  0  0
  3 63  1  0  0  0  0
  4 64  1  0  0  0  0
  4 65  1  0  0  0  0
  5 66  1  0  0  0  0
  5 67  1  0  0  0  0
  6 68  1  0  0  0  0
  6 69  1  0  0  0  0
  7 70  1  0  0  0  0
  7 71  1  0  0  0  0
  8 72  1  0  0  0  0
  8 73  1  0  0  0  0
  9 74  1  0  0  0  0
  9 75  1  0  0  0  0
 10 76  1  0  0  0  0
 10 77  1  0  0  0  0
 11 78  1  0  0  0  0
 11 79  1  0  0  0  0
 12 80  1  0  0  0  0
 12 81  1  0  0  0  0
 13 82  1  0  0  0  0
 13 83  1  0  0  0  0
 14 84  1  0  0  0  0
 14 85  1  0  0  0  0
 15 86  1  0  0  0  0
 15 87  1  0  0  0  0
 16 88  1  0  0  0  0
 16 89  1  0  0  0  0
 17 90  1  0  0  0  0
 17 91  1  0  0  0  0
 21 92  1  0  0  0  0
 22 93  1  0  0  0  0
 22 94  1  0  0  0  0
 23 95  1  0  0  0  0
 23 96  1  0  0  0  0
 24 97  1  0  0  0  0
 24 98  1  0  0  0  0
 25 99  1  0  0  0  0
 25100  1  0  0  0  0
 26101  1  0  0  0  0
 26102  1  0  0  0  0
 27103  1  0  0  0  0
 27104  1  0  0  0  0
 27105  1  0  0  0  0
 28106  1  0  0  0  0
 28107  1  0  0  0  0
 29108  1  0  0  0  0
 29109  1  0  0  0  0
 30110  1  0  0  0  0
 30111  1  0  0  0  0
 31112  1  0  0  0  0
 31113  1  0  0  0  0
 32114  1  0  0  0  0
 32115  1  0  0  0  0
 33116  1  0  0  0  0
 33117  1  0  0  0  0
 34118  1  0  0  0  0
 34119  1  0  0  0  0
 35120  1  0  0  0  0
 35121  1  0  0  0  0
 36122  1  0  0  0  0
 36123  1  0  0  0  0
 37124  1  0  0  0  0
 37125  1  0  0  0  0
 41126  1  0  0  0  0
 41127  1  0  0  0  0
 42128  1  0  0  0  0
 42129  1  0  0  0  0
 43130  1  0  0  0  0
 43131  1  0  0  0  0
 44132  1  0  0  0  0
 44133  1  0  0  0  0
 45134  1  0  0  0  0
 45135  1  0  0  0  0
 46136  1  0  0  0  0
 46137  1  0  0  0  0
 47138  1  0  0  0  0
 47139  1  0  0  0  0
 48140  1  0  0  0  0
 48141  1  0  0  0  0
 49142  1  0  0  0  0
 49143  1  0  0  0  0
 50144  1  0  0  0  0
 50145  1  0  0  0  0
 51146  1  0  0  0  0
 51147  1  0  0  0  0
 52148  1  0  0  0  0
 52149  1  0  0  0  0
 53150  1  0  0  0  0
 53151  1  0  0  0  0
 54152  1  0  0  0  0
 55153  1  0  0  0  0
 55154  1  0  0  0  0
 55155  1  0  0  0  0
 56156  1  0  0  0  0
 56157  1  0  0  0  0
 56158  1  0  0  0  0
M  END
> <id>
3374

> <casrn>
97338-28-8

> <smiles (First)>


> <Molecular weight>
791.3638916015625

> <name>
isohexadecyl 12-[(1-oxooctadecyl)oxy]octadecanoate

> <Outcome>
0

> <Molecule (RDKit Mol) (InChI Code)>
InChI=1S/C52H102O4/c1-5-7-9-11-12-13-14-15-16-17-20-23-30-35-41-47-52(54)56-50(44-38-10-8-6-2)45-39-33-28-24-25-29-34-40-46-51(53)55-48-42-36-31-26-21-18-19-22-27-32-37-43-49(3)4/h49-50H,5-48H2,1-4H3

> <reference>
ECHA

> <molecule_form>
A

$$$$

  Mrv1812 01171911372D          

110111  0  0  0  0            999 V2000
    3.5657   -6.9861    0.0000 C   0  0  0  0  0  0  0  0  0  0  0  0
    3.5657   -7.8111    0.0000 C   0  0  0  0  0  0  0  0  0  0  0  0
    2.7407   -7.8111    0.0000 C   0  0  0  0  0  0  0  0  0  0  0  0
    4.3907   -7.8111    0.0000 C   0  0  0  0  0  0  0  0  0  0  0  0
    3.5657   -8.6361    0.0000 C   0  0  0  0  0  0  0  0  0  0  0  0
    4.2802   -9.0486    0.0000 C   0  0  0  0  0  0  0  0  0  0  0  0
    4.2802   -9.8736    0.0000 C   0  0  0  0  0  0  0  0  0  0  0  0
    4.9946  -10.2861    0.0000 C   0  0  0  0  0  0  0  0  0  0  0  0
    5.7091   -9.8736    0.0000 C   0  0  0  0  0  0  0  0  0  0  0  0
    6.4236  -10.2861    0.0000 C   0  0  0  0  0  0  0  0  0  0  0  0
    6.4236  -11.1111    0.0000 O   0  0  0  0  0  0  0  0  0  0  0  0
    7.1380   -9.8736    0.0000 O   0  0  0  0  0  0  0  0  0  0  0  0
    7.8525  -10.2861    0.0000 C   0  0  0  0  0  0  0  0  0  0  0  0
    8.5670   -9.8736    0.0000 C   0  0  0  0  0  0  0  0  0  0  0  0
    9.2815  -10.2861    0.0000 N   0  0  0  0  0  0  0  0  0  0  0  0
    9.9959   -9.8736    0.0000 C   0  0  0  0  0  0  0  0  0  0  0  0
    9.9959   -9.0486    0.0000 O   0  0  0  0  0  0  0  0  0  0  0  0
   10.7104  -10.2861    0.0000 C   0  0  0  0  0  0  0  0  0  0  0  0
   10.7104  -11.1111    0.0000 O   0  0  0  0  0  0  0  0  0  0  0  0
   11.4249   -9.8736    0.0000 N   0  0  0  0  0  0  0  0  0  0  0  0
   12.1393  -10.2861    0.0000 C   0  0  0  0  0  0  0  0  0  0  0  0
   12.8538   -9.8736    0.0000 C   0  0  0  0  0  0  0  0  0  0  0  0
   13.5683  -10.2861    0.0000 O   0  0  0  0  0  0  0  0  0  0  0  0
   14.2827   -9.8736    0.0000 C   0  0  0  0  0  0  0  0  0  0  0  0
   14.2827   -9.0486    0.0000 O   0  0  0  0  0  0  0  0  0  0  0  0
   14.9972  -10.2861    0.0000 C   0  0  0  0  0  0  0  0  0  0  0  0
   15.7117   -9.8736    0.0000 C   0  0  0  0  0  0  0  0  0  0  0  0
   16.4262  -10.2861    0.0000 C   0  0  0  0  0  0  0  0  0  0  0  0
   17.1406   -9.8736    0.0000 C   0  0  0  0  0  0  0  0  0  0  0  0
   17.8551  -10.2861    0.0000 C   0  0  0  0  0  0  0  0  0  0  0  0
   18.5696   -9.8736    0.0000 C   0  0  0  0  0  0  0  0  0  0  0  0
   19.2840   -9.4611    0.0000 C   0  0  0  0  0  0  0  0  0  0  0  0
   18.9821  -10.5881    0.0000 C   0  0  0  0  0  0  0  0  0  0  0  0
   18.1571   -9.1591    0.0000 C   0  0  0  0  0  0  0  0  0  0  0  0
   17.8551  -11.1111    0.0000 C   0  0  0  0  0  0  0  0  0  0  0  0
   18.5696  -11.5236    0.0000 O   0  0  0  0  0  0  0  0  0  0  0  0
   17.1406  -11.5236    0.0000 C   0  0  0  0  0  0  0  0  0  0  0  0
   17.1406  -12.3486    0.0000 C   0  0  0  0  0  0  0  0  0  0  0  0
   17.1406  -13.1736    0.0000 C   0  0  0  0  0  0  0  0  0  0  0  0
   16.3156  -12.3486    0.0000 C   0  0  0  0  0  0  0  0  0  0  0  0
   17.9656  -12.3486    0.0000 C   0  0  0  0  0  0  0  0  0  0  0  0
   16.4262  -11.1111    0.0000 C   0  0  0  0  0  0  0  0  0  0  0  0
    3.5657  -10.2861    0.0000 C   0  0  0  0  0  0  0  0  0  0  0  0
    2.8512   -9.8736    0.0000 C   0  0  0  0  0  0  0  0  0  0  0  0
    2.1367  -10.2861    0.0000 C   0  0  0  0  0  0  0  0  0  0  0  0
    1.4223  -10.6986    0.0000 C   0  0  0  0  0  0  0  0  0  0  0  0
    1.7242   -9.5716    0.0000 C   0  0  0  0  0  0  0  0  0  0  0  0
    2.5492  -11.0006    0.0000 C   0  0  0  0  0  0  0  0  0  0  0  0
    2.8512   -9.0486    0.0000 C   0  0  0  0  0  0  0  0  0  0  0  0
    2.1367   -8.6361    0.0000 O   0  0  0  0  0  0  0  0  0  0  0  0
    4.3907   -6.9861    0.0000 H   0  0  0  0  0  0  0  0  0  0  0  0
    3.5657   -6.1611    0.0000 H   0  0  0  0  0  0  0  0  0  0  0  0
    2.7407   -6.9861    0.0000 H   0  0  0  0  0  0  0  0  0  0  0  0
    1.9785   -7.4954    0.0000 H   0  0  0  0  0  0  0  0  0  0  0  0
    2.1573   -8.3945    0.0000 H   0  0  0  0  0  0  0  0  0  0  0  0
    3.0564   -8.5733    0.0000 H   0  0  0  0  0  0  0  0  0  0  0  0
    4.0750   -8.5733    0.0000 H   0  0  0  0  0  0  0  0  0  0  0  0
    4.9740   -8.3945    0.0000 H   0  0  0  0  0  0  0  0  0  0  0  0
    5.1529   -7.4954    0.0000 H   0  0  0  0  0  0  0  0  0  0  0  0
    5.0376   -9.3755    0.0000 H   0  0  0  0  0  0  0  0  0  0  0  0
    4.6244  -11.0233    0.0000 H   0  0  0  0  0  0  0  0  0  0  0  0
    5.3649  -11.0233    0.0000 H   0  0  0  0  0  0  0  0  0  0  0  0
    6.4388   -9.4887    0.0000 H   0  0  0  0  0  0  0  0  0  0  0  0
    5.7721   -9.0510    0.0000 H   0  0  0  0  0  0  0  0  0  0  0  0
    7.4823  -11.0233    0.0000 H   0  0  0  0  0  0  0  0  0  0  0  0
    8.2228  -11.0233    0.0000 H   0  0  0  0  0  0  0  0  0  0  0  0
    8.9372   -9.1363    0.0000 H   0  0  0  0  0  0  0  0  0  0  0  0
    8.1967   -9.1363    0.0000 H   0  0  0  0  0  0  0  0  0  0  0  0
    9.2815  -11.1111    0.0000 H   0  0  0  0  0  0  0  0  0  0  0  0
   11.4249   -9.0486    0.0000 H   0  0  0  0  0  0  0  0  0  0  0  0
   11.7691  -11.0233    0.0000 H   0  0  0  0  0  0  0  0  0  0  0  0
   12.5096  -11.0233    0.0000 H   0  0  0  0  0  0  0  0  0  0  0  0
   13.2241   -9.1363    0.0000 H   0  0  0  0  0  0  0  0  0  0  0  0
   12.4835   -9.1363    0.0000 H   0  0  0  0  0  0  0  0  0  0  0  0
   14.6270  -11.0233    0.0000 H   0  0  0  0  0  0  0  0  0  0  0  0
   15.3675  -11.0233    0.0000 H   0  0  0  0  0  0  0  0  0  0  0  0
   16.0820   -9.1363    0.0000 H   0  0  0  0  0  0  0  0  0  0  0  0
   15.3414   -9.1363    0.0000 H   0  0  0  0  0  0  0  0  0  0  0  0
   17.1406   -9.0486    0.0000 H   0  0  0  0  0  0  0  0  0  0  0  0
   19.6965  -10.1756    0.0000 H   0  0  0  0  0  0  0  0  0  0  0  0
   19.9985   -9.0486    0.0000 H   0  0  0  0  0  0  0  0  0  0  0  0
   18.8715   -8.7466    0.0000 H   0  0  0  0  0  0  0  0  0  0  0  0
   18.1641  -10.6957    0.0000 H   0  0  0  0  0  0  0  0  0  0  0  0
   18.7685  -11.3850    0.0000 H   0  0  0  0  0  0  0  0  0  0  0  0
   19.6366  -11.0903    0.0000 H   0  0  0  0  0  0  0  0  0  0  0  0
   18.0494   -8.3412    0.0000 H   0  0  0  0  0  0  0  0  0  0  0  0
   17.3602   -8.9456    0.0000 H   0  0  0  0  0  0  0  0  0  0  0  0
   17.6548   -9.8136    0.0000 H   0  0  0  0  0  0  0  0  0  0  0  0
   18.6046  -12.3478    0.0000 H   0  0  0  0  0  0  0  0  0  0  0  0
   16.3156  -13.1736    0.0000 H   0  0  0  0  0  0  0  0  0  0  0  0
   17.1406  -13.9986    0.0000 H   0  0  0  0  0  0  0  0  0  0  0  0
   17.9656  -13.1736    0.0000 H   0  0  0  0  0  0  0  0  0  0  0  0
   16.6313  -11.5864    0.0000 H   0  0  0  0  0  0  0  0  0  0  0  0
   15.7323  -11.7652    0.0000 H   0  0  0  0  0  0  0  0  0  0  0  0
   15.5534  -12.6643    0.0000 H   0  0  0  0  0  0  0  0  0  0  0  0
   18.3776  -11.6338    0.0000 H   0  0  0  0  0  0  0  0  0  0  0  0
   17.5529  -11.6343    0.0000 H   0  0  0  0  0  0  0  0  0  0  0  0
   18.5493  -12.9316    0.0000 H   0  0  0  0  0  0  0  0  0  0  0  0
   15.6687  -10.7842    0.0000 H   0  0  0  0  0  0  0  0  0  0  0  0
    3.5657  -11.1111    0.0000 H   0  0  0  0  0  0  0  0  0  0  0  0
    1.0098   -9.9841    0.0000 H   0  0  0  0  0  0  0  0  0  0  0  0
    0.7078  -11.1111    0.0000 H   0  0  0  0  0  0  0  0  0  0  0  0
    1.8348  -11.4131    0.0000 H   0  0  0  0  0  0  0  0  0  0  0  0
    2.5422   -9.4639    0.0000 H   0  0  0  0  0  0  0  0  0  0  0  0
    1.9378   -8.7747    0.0000 H   0  0  0  0  0  0  0  0  0  0  0  0
    1.0697   -9.0694    0.0000 H   0  0  0  0  0  0  0  0  0  0  0  0
    2.6569  -11.8185    0.0000 H   0  0  0  0  0  0  0  0  0  0  0  0
    3.3461  -11.2141    0.0000 H   0  0  0  0  0  0  0  0  0  0  0  0
    3.0515  -10.3460    0.0000 H   0  0  0  0  0  0  0  0  0  0  0  0
    1.4223   -8.2236    0.0000 H   0  0  0  0  0  0  0  0  0  0  0  0
  1  2  1  0  0  0  0
  2  3  1  0  0  0  0
  2  4  1  0  0  0  0
  2  5  1  0  0  0  0
  5  6  4  0  0  0  0
  6  7  4  0  0  0  0
  7  8  1  0  0  0  0
  8  9  1  0  0  0  0
  9 10  1  0  0  0  0
 10 11  2  0  0  0  0
 10 12  1  0  0  0  0
 12 13  1  0  0  0  0
 13 14  1  0  0  0  0
 14 15  1  0  0  0  0
 15 16  1  0  0  0  0
 16 17  2  0  0  0  0
 16 18  1  0  0  0  0
 18 19  2  0  0  0  0
 18 20  1  0  0  0  0
 20 21  1  0  0  0  0
 21 22  1  0  0  0  0
 22 23  1  0  0  0  0
 23 24  1  0  0  0  0
 24 25  2  0  0  0  0
 24 26  1  0  0  0  0
 26 27  1  0  0  0  0
 27 28  1  0  0  0  0
 28 29  4  0  0  0  0
 29 30  4  0  0  0  0
 30 31  1  0  0  0  0
 31 32  1  0  0  0  0
 31 33  1  0  0  0  0
 31 34  1  0  0  0  0
 30 35  4  0  0  0  0
 35 36  1  0  0  0  0
 35 37  4  0  0  0  0
 37 38  1  0  0  0  0
 38 39  1  0  0  0  0
 38 40  1  0  0  0  0
 38 41  1  0  0  0  0
 37 42  4  0  0  0  0
 28 42  4  0  0  0  0
  7 43  4  0  0  0  0
 43 44  4  0  0  0  0
 44 45  1  0  0  0  0
 45 46  1  0  0  0  0
 45 47  1  0  0  0  0
 45 48  1  0  0  0  0
 44 49  4  0  0  0  0
  5 49  4  0  0  0  0
 49 50  1  0  0  0  0
  1 51  1  0  0  0  0
  1 52  1  0  0  0  0
  1 53  1  0  0  0  0
  3 54  1  0  0  0  0
  3 55  1  0  0  0  0
  3 56  1  0  0  0  0
  4 57  1  0  0  0  0
  4 58  1  0  0  0  0
  4 59  1  0  0  0  0
  6 60  1  0  0  0  0
  8 61  1  0  0  0  0
  8 62  1  0  0  0  0
  9 63  1  0  0  0  0
  9 64  1  0  0  0  0
 13 65  1  0  0  0  0
 13 66  1  0  0  0  0
 14 67  1  0  0  0  0
 14 68  1  0  0  0  0
 15 69  1  0  0  0  0
 20 70  1  0  0  0  0
 21 71  1  0  0  0  0
 21 72  1  0  0  0  0
 22 73  1  0  0  0  0
 22 74  1  0  0  0  0
 26 75  1  0  0  0  0
 26 76  1  0  0  0  0
 27 77  1  0  0  0  0
 27 78  1  0  0  0  0
 29 79  1  0  0  0  0
 32 80  1  0  0  0  0
 32 81  1  0  0  0  0
 32 82  1  0  0  0  0
 33 83  1  0  0  0  0
 33 84  1  0  0  0  0
 33 85  1  0  0  0  0
 34 86  1  0  0  0  0
 34 87  1  0  0  0  0
 34 88  1  0  0  0  0
 36 89  1  0  0  0  0
 39 90  1  0  0  0  0
 39 91  1  0  0  0  0
 39 92  1  0  0  0  0
 40 93  1  0  0  0  0
 40 94  1  0  0  0  0
 40 95  1  0  0  0  0
 41 96  1  0  0  0  0
 41 97  1  0  0  0  0
 41 98  1  0  0  0  0
 42 99  1  0  0  0  0
 43100  1  0  0  0  0
 46101  1  0  0  0  0
 46102  1  0  0  0  0
 46103  1  0  0  0  0
 47104  1  0  0  0  0
 47105  1  0  0  0  0
 47106  1  0  0  0  0
 48107  1  0  0  0  0
 48108  1  0  0  0  0
 48109  1  0  0  0  0
 50110  1  0  0  0  0
M  END
> <id>
1705

> <casrn>
70331-94-1

> <smiles (First)>


> <Molecular weight>
696.9130249023438

> <name>
2-{[(2-{[3-(3,5-di-tert-butyl-4-hydroxyphenyl)propanoyl]oxy}ethyl)carbamoyl]formamido}ethyl 3-(3,5-di-tert-butyl-4-hydroxyphenyl)propanoate

> <Outcome>
0

> <Molecule (RDKit Mol) (InChI Code)>
InChI=1S/C40H60N2O8/c1-37(2,3)27-21-25(22-28(33(27)45)38(4,5)6)13-15-31(43)49-19-17-41-35(47)36(48)42-18-20-50-32(44)16-14-26-23-29(39(7,8)9)34(46)30(24-26)40(10,11)12/h21-24,45-46H,13-20H2,1-12H3,(H,41,47)(H,42,48)

> <reference>
ECHA

> <molecule_form>
A

$$$$

  Mrv1812 01171911372D          

  8  7  0  0  0  0            999 V2000
    0.8250    1.4289    0.0000 O   0  0  0  0  0  0  0  0  0  0  0  0
    1.2375    0.7145    0.0000 C   0  0  0  0  0  0  0  0  0  0  0  0
    2.0625    0.7145    0.0000 O   0  0  0  0  0  0  0  0  0  0  0  0
    0.8250    0.0000    0.0000 C   0  0  0  0  0  0  0  0  0  0  0  0
    1.2375   -0.7145    0.0000 F   0  0  0  0  0  0  0  0  0  0  0  0
    0.0000    0.0000    0.0000 F   0  0  0  0  0  0  0  0  0  0  0  0
    2.4750    0.0000    0.0000 H   0  0  0  0  0  0  0  0  0  0  0  0
    1.6500    0.0000    0.0000 H   0  0  0  0  0  0  0  0  0  0  0  0
  1  2  2  0  0  0  0
  2  3  1  0  0  0  0
  2  4  1  0  0  0  0
  4  5  1  0  0  0  0
  4  6  1  0  0  0  0
  3  7  1  0  0  0  0
  4  8  1  0  0  0  0
M  END
> <id>
2970

> <casrn>
381-73-7

> <smiles (First)>


> <Molecular weight>
96.03289031982422

> <name>
difluoroacetic acid

> <Outcome>
1

> <Molecule (RDKit Mol) (InChI Code)>
InChI=1S/C2H2F2O2/c3-1(4)2(5)6/h1H,(H,5,6)

> <reference>
ECHA

> <molecule_form>
A

$$$$

  Mrv1812 01171911372D          

 45 47  0  0  0  0            999 V2000
   -0.8724   -0.4778    0.0000 C   0  0  0  0  0  0  0  0  0  0  0  0
   -0.1580   -0.0653    0.0000 C   0  0  0  0  0  0  0  0  0  0  0  0
    0.5565   -0.4778    0.0000 C   0  0  0  0  0  0  0  0  0  0  0  0
    0.3502    0.3472    0.0000 C   0  0  0  0  0  0  0  0  0  0  0  0
    0.5565    1.1722    0.0000 C   0  0  0  0  0  0  0  0  0  0  0  0
    1.2710    0.7597    0.0000 C   0  0  0  0  0  0  0  0  0  0  0  0
    1.2710   -0.0653    0.0000 C   0  0  0  0  0  0  0  0  0  0  0  0
    1.9854   -0.4778    0.0000 C   0  0  0  0  0  0  0  0  0  0  0  0
    2.6999   -0.0653    0.0000 C   0  0  0  0  0  0  0  0  0  0  0  0
    3.4144   -0.4778    0.0000 C   0  0  0  0  0  0  0  0  0  0  0  0
    3.4144   -1.3028    0.0000 C   0  0  0  0  0  0  0  0  0  0  0  0
    4.1288   -1.7153    0.0000 O   0  0  0  0  0  0  0  0  0  0  0  0
    2.6999   -1.7153    0.0000 C   0  0  0  0  0  0  0  0  0  0  0  0
    1.9854   -1.3028    0.0000 C   0  0  0  0  0  0  0  0  0  0  0  0
   -0.1580    0.7597    0.0000 C   0  0  0  0  0  0  0  0  0  0  0  0
   -0.5952    1.4593    0.0000 C   0  0  0  0  0  0  0  0  0  0  0  0
   -0.9825    0.7884    0.0000 C   0  0  0  0  0  0  0  0  0  0  0  0
   -1.2849    0.2366    0.0000 H   0  0  0  0  0  0  0  0  0  0  0  0
   -1.5869   -0.8903    0.0000 H   0  0  0  0  0  0  0  0  0  0  0  0
   -0.4599   -1.1923    0.0000 H   0  0  0  0  0  0  0  0  0  0  0  0
   -0.8724    0.3472    0.0000 H   0  0  0  0  0  0  0  0  0  0  0  0
    0.5565   -1.3028    0.0000 H   0  0  0  0  0  0  0  0  0  0  0  0
    1.0960   -0.0057    0.0000 H   0  0  0  0  0  0  0  0  0  0  0  0
    1.0960    0.7000    0.0000 H   0  0  0  0  0  0  0  0  0  0  0  0
    0.5565    1.9972    0.0000 H   0  0  0  0  0  0  0  0  0  0  0  0
    2.0946    0.8076    0.0000 H   0  0  0  0  0  0  0  0  0  0  0  0
    1.7243    1.4489    0.0000 H   0  0  0  0  0  0  0  0  0  0  0  0
    1.2710   -0.8903    0.0000 H   0  0  0  0  0  0  0  0  0  0  0  0
    1.9854    0.3472    0.0000 H   0  0  0  0  0  0  0  0  0  0  0  0
    3.3319    0.4650    0.0000 H   0  0  0  0  0  0  0  0  0  0  0  0
    2.8432    0.7471    0.0000 H   0  0  0  0  0  0  0  0  0  0  0  0
    4.1988   -0.7335    0.0000 H   0  0  0  0  0  0  0  0  0  0  0  0
    4.1735   -0.1548    0.0000 H   0  0  0  0  0  0  0  0  0  0  0  0
    3.4144   -2.1278    0.0000 H   0  0  0  0  0  0  0  0  0  0  0  0
    4.9538   -1.7153    0.0000 H   0  0  0  0  0  0  0  0  0  0  0  0
    2.0679   -2.2456    0.0000 H   0  0  0  0  0  0  0  0  0  0  0  0
    2.5566   -2.5278    0.0000 H   0  0  0  0  0  0  0  0  0  0  0  0
    1.2896   -1.7461    0.0000 H   0  0  0  0  0  0  0  0  0  0  0  0
    2.6999   -0.8903    0.0000 H   0  0  0  0  0  0  0  0  0  0  0  0
    0.1959    1.6936    0.0000 H   0  0  0  0  0  0  0  0  0  0  0  0
   -0.6096    2.2842    0.0000 H   0  0  0  0  0  0  0  0  0  0  0  0
   -1.3939    1.6659    0.0000 H   0  0  0  0  0  0  0  0  0  0  0  0
   -1.6717    1.2419    0.0000 H   0  0  0  0  0  0  0  0  0  0  0  0
   -1.8071    0.8144    0.0000 H   0  0  0  0  0  0  0  0  0  0  0  0
   -1.6989    0.3793    0.0000 H   0  0  0  0  0  0  0  0  0  0  0  0
  1  2  1  0  0  0  0
  2  3  1  0  0  0  0
  3  4  1  0  0  0  0
  4  5  1  0  0  0  0
  5  6  1  0  0  0  0
  6  7  1  0  0  0  0
  3  7  1  0  0  0  0
  7  8  1  0  0  0  0
  8  9  1  0  0  0  0
  9 10  1  0  0  0  0
 10 11  1  0  0  0  0
 11 12  1  0  0  0  0
 11 13  1  0  0  0  0
 13 14  1  0  0  0  0
  8 14  1  0  0  0  0
  5 15  1  0  0  0  0
  2 15  1  0  0  0  0
 15 16  1  0  0  0  0
 15 17  1  0  0  0  0
  1 18  1  0  0  0  0
  1 19  1  0  0  0  0
  1 20  1  0  0  0  0
  2 21  1  0  0  0  0
  3 22  1  0  0  0  0
  4 23  1  0  0  0  0
  4 24  1  0  0  0  0
  5 25  1  0  0  0  0
  6 26  1  0  0  0  0
  6 27  1  0  0  0  0
  7 28  1  0  0  0  0
  8 29  1  0  0  0  0
  9 30  1  0  0  0  0
  9 31  1  0  0  0  0
 10 32  1  0  0  0  0
 10 33  1  0  0  0  0
 11 34  1  0  0  0  0
 12 35  1  0  0  0  0
 13 36  1  0  0  0  0
 13 37  1  0  0  0  0
 14 38  1  0  0  0  0
 14 39  1  0  0  0  0
 16 40  1  0  0  0  0
 16 41  1  0  0  0  0
 16 42  1  0  0  0  0
 17 43  1  0  0  0  0
 17 44  1  0  0  0  0
 17 45  1  0  0  0  0
M  END
> <id>
1859

> <casrn>
66068-84-6

> <smiles (First)>


> <Molecular weight>
236.39292907714844

> <name>
4-{5,5,6-trimethylbicyclo[2.2.1]heptan-2-yl}cyclohexan-1-ol

> <Outcome>
0

> <Molecule (RDKit Mol) (InChI Code)>
InChI=1S/C16H28O/c1-10-14-8-12(16(10,2)3)9-15(14)11-4-6-13(17)7-5-11/h10-15,17H,4-9H2,1-3H3

> <reference>
ECHA

> <molecule_form>
A

$$$$

  Mrv1812 01171911372D          

 28 27  0  0  0  0            999 V2000
    4.5375   -5.0013    0.0000 C   0  0  0  0  0  0  0  0  0  0  0  0
    3.7125   -5.0013    0.0000 C   0  0  0  0  0  0  0  0  0  0  0  0
    3.3000   -4.2868    0.0000 C   0  0  0  0  0  0  0  0  0  0  0  0
    4.0145   -3.8743    0.0000 F   0  0  0  0  0  0  0  0  0  0  0  0
    2.5855   -4.6993    0.0000 F   0  0  0  0  0  0  0  0  0  0  0  0
    2.8875   -3.5724    0.0000 C   0  0  0  0  0  0  0  0  0  0  0  0
    3.6020   -3.1599    0.0000 F   0  0  0  0  0  0  0  0  0  0  0  0
    2.1730   -3.9849    0.0000 F   0  0  0  0  0  0  0  0  0  0  0  0
    2.4750   -2.8579    0.0000 C   0  0  0  0  0  0  0  0  0  0  0  0
    3.1895   -2.4454    0.0000 F   0  0  0  0  0  0  0  0  0  0  0  0
    1.7605   -3.2704    0.0000 F   0  0  0  0  0  0  0  0  0  0  0  0
    2.0625   -2.1434    0.0000 C   0  0  0  0  0  0  0  0  0  0  0  0
    2.7770   -1.7309    0.0000 F   0  0  0  0  0  0  0  0  0  0  0  0
    1.3480   -2.5559    0.0000 F   0  0  0  0  0  0  0  0  0  0  0  0
    1.6500   -1.4289    0.0000 C   0  0  0  0  0  0  0  0  0  0  0  0
    2.3645   -1.0164    0.0000 F   0  0  0  0  0  0  0  0  0  0  0  0
    0.9355   -1.8414    0.0000 F   0  0  0  0  0  0  0  0  0  0  0  0
    1.2375   -0.7145    0.0000 C   0  0  0  0  0  0  0  0  0  0  0  0
    1.9520   -0.3020    0.0000 F   0  0  0  0  0  0  0  0  0  0  0  0
    0.5230   -1.1270    0.0000 F   0  0  0  0  0  0  0  0  0  0  0  0
    0.8250   -0.0000    0.0000 C   0  0  0  0  0  0  0  0  0  0  0  0
    0.0000   -0.0000    0.0000 C   0  0  0  0  0  0  0  0  0  0  0  0
    4.9500   -5.7158    0.0000 H   0  0  0  0  0  0  0  0  0  0  0  0
    4.9500   -4.2868    0.0000 H   0  0  0  0  0  0  0  0  0  0  0  0
    3.3000   -5.7158    0.0000 H   0  0  0  0  0  0  0  0  0  0  0  0
    1.2375    0.7145    0.0000 H   0  0  0  0  0  0  0  0  0  0  0  0
   -0.4125    0.7145    0.0000 H   0  0  0  0  0  0  0  0  0  0  0  0
   -0.4125   -0.7145    0.0000 H   0  0  0  0  0  0  0  0  0  0  0  0
  1  2  2  0  0  0  0
  2  3  1  0  0  0  0
  3  4  1  0  0  0  0
  3  5  1  0  0  0  0
  3  6  1  0  0  0  0
  6  7  1  0  0  0  0
  6  8  1  0  0  0  0
  6  9  1  0  0  0  0
  9 10  1  0  0  0  0
  9 11  1  0  0  0  0
  9 12  1  0  0  0  0
 12 13  1  0  0  0  0
 12 14  1  0  0  0  0
 12 15  1  0  0  0  0
 15 16  1  0  0  0  0
 15 17  1  0  0  0  0
 15 18  1  0  0  0  0
 18 19  1  0  0  0  0
 18 20  1  0  0  0  0
 18 21  1  0  0  0  0
 21 22  2  0  0  0  0
  1 23  1  0  0  0  0
  1 24  1  0  0  0  0
  2 25  1  0  0  0  0
 21 26  1  0  0  0  0
 22 27  1  0  0  0  0
 22 28  1  0  0  0  0
M  END
> <id>
1717

> <casrn>
1800-91-5

> <smiles (First)>


> <Molecular weight>
354.135498046875

> <name>
3,3,4,4,5,5,6,6,7,7,8,8-dodecafluorodeca-1,9-diene

> <Outcome>
0

> <Molecule (RDKit Mol) (InChI Code)>
InChI=1S/C10H6F12/c1-3-5(11,12)7(15,16)9(19,20)10(21,22)8(17,18)6(13,14)4-2/h3-4H,1-2H2

> <reference>
ECHA

> <molecule_form>
V

$$$$

  Mrv1812 01171911372D          

 10 10  0  0  0  0            999 V2000
    1.5021    1.9494    0.0000 F   0  0  0  0  0  0  0  0  0  0  0  0
    0.8701    1.4191    0.0000 C   0  0  0  0  0  0  0  0  0  0  0  0
    0.3398    2.0511    0.0000 F   0  0  0  0  0  0  0  0  0  0  0  0
    1.4004    0.7871    0.0000 F   0  0  0  0  0  0  0  0  0  0  0  0
    0.2382    0.8888    0.0000 C   0  0  0  0  0  0  0  0  0  0  0  0
   -0.3938    1.4191    0.0000 F   0  0  0  0  0  0  0  0  0  0  0  0
    0.6507    0.1743    0.0000 O   0  0  0  0  0  0  0  0  0  0  0  0
   -0.1743    0.1743    0.0000 C   0  0  0  0  0  0  0  0  0  0  0  0
   -0.5230   -0.5734    0.0000 F   0  0  0  0  0  0  0  0  0  0  0  0
   -0.9962    0.2462    0.0000 F   0  0  0  0  0  0  0  0  0  0  0  0
  1  2  1  0  0  0  0
  2  3  1  0  0  0  0
  2  4  1  0  0  0  0
  2  5  1  0  0  0  0
  5  6  1  0  0  0  0
  5  7  1  0  0  0  0
  7  8  1  0  0  0  0
  5  8  1  0  0  0  0
  8  9  1  0  0  0  0
  8 10  1  0  0  0  0
M  END
> <id>
1243

> <casrn>
428-59-1

> <smiles (First)>


> <Molecular weight>
166.0219268798828

> <name>
2,2,3-trifluoro-3-(trifluoromethyl)oxirane

> <Outcome>
1

> <Molecule (RDKit Mol) (InChI Code)>
InChI=1S/C3F6O/c4-1(2(5,6)7)3(8,9)10-1

> <reference>
ECHA

> <molecule_form>
G

$$$$

  Mrv1812 01171911372D          

 36 35  0  0  0  0            999 V2000
   -3.0342    0.6534    0.0000 C   0  0  0  0  0  0  0  0  0  0  0  0
   -2.3197    0.2409    0.0000 O   0  0  0  0  0  0  0  0  0  0  0  0
   -1.6052    0.6534    0.0000 Si  0  0  0  0  0  0  0  0  0  0  0  0
   -0.8908    1.0659    0.0000 C   0  0  0  0  0  0  0  0  0  0  0  0
   -0.1763    0.6534    0.0000 C   0  0  0  0  0  0  0  0  0  0  0  0
    0.5382    1.0659    0.0000 C   0  0  0  0  0  0  0  0  0  0  0  0
    1.2526    0.6534    0.0000 N   0  0  0  0  0  0  0  0  0  0  0  0
    1.9671    1.0659    0.0000 C   0  0  0  0  0  0  0  0  0  0  0  0
    2.6816    0.6534    0.0000 C   0  0  0  0  0  0  0  0  0  0  0  0
    3.3961    1.0659    0.0000 N   0  0  0  0  0  0  0  0  0  0  0  0
   -1.1927   -0.0611    0.0000 O   0  0  0  0  0  0  0  0  0  0  0  0
   -0.3677   -0.0611    0.0000 C   0  0  0  0  0  0  0  0  0  0  0  0
   -2.0177    1.3678    0.0000 O   0  0  0  0  0  0  0  0  0  0  0  0
   -1.6052    2.0823    0.0000 C   0  0  0  0  0  0  0  0  0  0  0  0
   -2.6217    1.3678    0.0000 H   0  0  0  0  0  0  0  0  0  0  0  0
   -3.7487    1.0659    0.0000 H   0  0  0  0  0  0  0  0  0  0  0  0
   -3.4467   -0.0611    0.0000 H   0  0  0  0  0  0  0  0  0  0  0  0
   -0.5205    1.8031    0.0000 H   0  0  0  0  0  0  0  0  0  0  0  0
   -1.2610    1.8031    0.0000 H   0  0  0  0  0  0  0  0  0  0  0  0
    0.4782    0.1511    0.0000 H   0  0  0  0  0  0  0  0  0  0  0  0
   -0.1763    1.4784    0.0000 H   0  0  0  0  0  0  0  0  0  0  0  0
    1.1702    1.5962    0.0000 H   0  0  0  0  0  0  0  0  0  0  0  0
    0.6814    1.8783    0.0000 H   0  0  0  0  0  0  0  0  0  0  0  0
    1.6835   -0.0502    0.0000 H   0  0  0  0  0  0  0  0  0  0  0  0
    2.6902    1.4631    0.0000 H   0  0  0  0  0  0  0  0  0  0  0  0
    2.0020    1.8901    0.0000 H   0  0  0  0  0  0  0  0  0  0  0  0
    2.3113   -0.0839    0.0000 H   0  0  0  0  0  0  0  0  0  0  0  0
    3.0518   -0.0839    0.0000 H   0  0  0  0  0  0  0  0  0  0  0  0
    4.0873    0.6155    0.0000 H   0  0  0  0  0  0  0  0  0  0  0  0
    4.0823    1.5238    0.0000 H   0  0  0  0  0  0  0  0  0  0  0  0
   -0.5746   -0.8598    0.0000 H   0  0  0  0  0  0  0  0  0  0  0  0
    0.0273   -0.7854    0.0000 H   0  0  0  0  0  0  0  0  0  0  0  0
   -0.8700    0.5934    0.0000 H   0  0  0  0  0  0  0  0  0  0  0  0
   -0.8960    2.5037    0.0000 H   0  0  0  0  0  0  0  0  0  0  0  0
   -1.7553    2.8935    0.0000 H   0  0  0  0  0  0  0  0  0  0  0  0
   -2.4183    2.2222    0.0000 H   0  0  0  0  0  0  0  0  0  0  0  0
  1  2  1  0  0  0  0
  2  3  1  0  0  0  0
  3  4  1  0  0  0  0
  4  5  1  0  0  0  0
  5  6  1  0  0  0  0
  6  7  1  0  0  0  0
  7  8  1  0  0  0  0
  8  9  1  0  0  0  0
  9 10  1  0  0  0  0
  3 11  1  0  0  0  0
 11 12  1  0  0  0  0
  3 13  1  0  0  0  0
 13 14  1  0  0  0  0
  1 15  1  0  0  0  0
  1 16  1  0  0  0  0
  1 17  1  0  0  0  0
  4 18  1  0  0  0  0
  4 19  1  0  0  0  0
  5 20  1  0  0  0  0
  5 21  1  0  0  0  0
  6 22  1  0  0  0  0
  6 23  1  0  0  0  0
  7 24  1  0  0  0  0
  8 25  1  0  0  0  0
  8 26  1  0  0  0  0
  9 27  1  0  0  0  0
  9 28  1  0  0  0  0
 10 29  1  0  0  0  0
 10 30  1  0  0  0  0
 12 31  1  0  0  0  0
 12 32  1  0  0  0  0
 12 33  1  0  0  0  0
 14 34  1  0  0  0  0
 14 35  1  0  0  0  0
 14 36  1  0  0  0  0
M  END
> <id>
157

> <casrn>
1760-24-3

> <smiles (First)>


> <Molecular weight>
222.3573760986328

> <name>
(2-aminoethyl)[3-(trimethoxysilyl)propyl]amine

> <Outcome>
1

> <Molecule (RDKit Mol) (InChI Code)>
InChI=1S/C8H22N2O3Si/c1-11-14(12-2,13-3)8-4-6-10-7-5-9/h10H,4-9H2,1-3H3

> <reference>
ECHA

> <molecule_form>
A

$$$$

  Mrv1812 01171911372D          

105104  0  0  0  0            999 V2000
   -5.3977    0.1390    0.0000 C   0  0  0  0  0  0  0  0  0  0  0  0
   -4.5727    0.1390    0.0000 C   0  0  0  0  0  0  0  0  0  0  0  0
   -4.1602   -0.5755    0.0000 C   0  0  0  0  0  0  0  0  0  0  0  0
   -3.3352   -0.5755    0.0000 C   0  0  0  0  0  0  0  0  0  0  0  0
   -2.9227   -1.2899    0.0000 C   0  0  0  0  0  0  0  0  0  0  0  0
   -2.0977   -1.2899    0.0000 C   0  0  0  0  0  0  0  0  0  0  0  0
   -1.6852   -2.0044    0.0000 C   0  0  0  0  0  0  0  0  0  0  0  0
   -0.8602   -2.0044    0.0000 O   0  0  0  0  0  0  0  0  0  0  0  0
   -0.4477   -2.7189    0.0000 C   0  0  0  0  0  0  0  0  0  0  0  0
    0.3773   -2.7189    0.0000 C   0  0  0  0  0  0  0  0  0  0  0  0
    1.2023   -2.7189    0.0000 C   0  0  0  0  0  0  0  0  0  0  0  0
    1.6148   -3.4334    0.0000 O   0  0  0  0  0  0  0  0  0  0  0  0
    2.4398   -3.4334    0.0000 C   0  0  0  0  0  0  0  0  0  0  0  0
    2.8523   -4.1478    0.0000 C   0  0  0  0  0  0  0  0  0  0  0  0
    3.6773   -4.1478    0.0000 C   0  0  0  0  0  0  0  0  0  0  0  0
    4.0898   -4.8623    0.0000 C   0  0  0  0  0  0  0  0  0  0  0  0
    4.9148   -4.8623    0.0000 C   0  0  0  0  0  0  0  0  0  0  0  0
    5.3273   -5.5768    0.0000 C   0  0  0  0  0  0  0  0  0  0  0  0
    6.1523   -5.5768    0.0000 C   0  0  0  0  0  0  0  0  0  0  0  0
    0.3773   -3.5439    0.0000 C   0  0  0  0  0  0  0  0  0  0  0  0
    1.0918   -3.9564    0.0000 O   0  0  0  0  0  0  0  0  0  0  0  0
    1.0918   -4.7814    0.0000 C   0  0  0  0  0  0  0  0  0  0  0  0
    1.8063   -5.1939    0.0000 C   0  0  0  0  0  0  0  0  0  0  0  0
    1.8063   -6.0189    0.0000 C   0  0  0  0  0  0  0  0  0  0  0  0
    2.5207   -6.4314    0.0000 C   0  0  0  0  0  0  0  0  0  0  0  0
    2.5207   -7.2564    0.0000 C   0  0  0  0  0  0  0  0  0  0  0  0
    3.2352   -7.6689    0.0000 C   0  0  0  0  0  0  0  0  0  0  0  0
    3.2352   -8.4939    0.0000 C   0  0  0  0  0  0  0  0  0  0  0  0
    0.3773   -1.8939    0.0000 C   0  0  0  0  0  0  0  0  0  0  0  0
    1.0918   -1.4814    0.0000 O   0  0  0  0  0  0  0  0  0  0  0  0
    1.8063   -1.8939    0.0000 C   0  0  0  0  0  0  0  0  0  0  0  0
    2.5207   -1.4814    0.0000 C   0  0  0  0  0  0  0  0  0  0  0  0
    3.2352   -1.8939    0.0000 C   0  0  0  0  0  0  0  0  0  0  0  0
    3.9497   -1.4814    0.0000 C   0  0  0  0  0  0  0  0  0  0  0  0
    4.6641   -1.8939    0.0000 C   0  0  0  0  0  0  0  0  0  0  0  0
    5.3786   -1.4814    0.0000 C   0  0  0  0  0  0  0  0  0  0  0  0
    6.0931   -1.8939    0.0000 C   0  0  0  0  0  0  0  0  0  0  0  0
   -5.3977    0.9640    0.0000 H   0  0  0  0  0  0  0  0  0  0  0  0
   -6.2227    0.1390    0.0000 H   0  0  0  0  0  0  0  0  0  0  0  0
   -5.3977   -0.6860    0.0000 H   0  0  0  0  0  0  0  0  0  0  0  0
   -3.8834    0.5923    0.0000 H   0  0  0  0  0  0  0  0  0  0  0  0
   -4.5247    0.9626    0.0000 H   0  0  0  0  0  0  0  0  0  0  0  0
   -4.8495   -1.0288    0.0000 H   0  0  0  0  0  0  0  0  0  0  0  0
   -4.2082   -1.3991    0.0000 H   0  0  0  0  0  0  0  0  0  0  0  0
   -2.6459   -0.1221    0.0000 H   0  0  0  0  0  0  0  0  0  0  0  0
   -3.2872    0.2481    0.0000 H   0  0  0  0  0  0  0  0  0  0  0  0
   -3.6120   -1.7433    0.0000 H   0  0  0  0  0  0  0  0  0  0  0  0
   -2.9707   -2.1135    0.0000 H   0  0  0  0  0  0  0  0  0  0  0  0
   -1.4084   -0.8366    0.0000 H   0  0  0  0  0  0  0  0  0  0  0  0
   -2.0497   -0.4663    0.0000 H   0  0  0  0  0  0  0  0  0  0  0  0
   -2.3745   -2.4578    0.0000 H   0  0  0  0  0  0  0  0  0  0  0  0
   -1.7332   -2.8280    0.0000 H   0  0  0  0  0  0  0  0  0  0  0  0
   -1.1370   -3.1722    0.0000 H   0  0  0  0  0  0  0  0  0  0  0  0
   -0.4957   -3.5425    0.0000 H   0  0  0  0  0  0  0  0  0  0  0  0
    1.8916   -2.2655    0.0000 H   0  0  0  0  0  0  0  0  0  0  0  0
    1.2503   -1.8953    0.0000 H   0  0  0  0  0  0  0  0  0  0  0  0
    3.1291   -2.9800    0.0000 H   0  0  0  0  0  0  0  0  0  0  0  0
    2.4878   -2.6097    0.0000 H   0  0  0  0  0  0  0  0  0  0  0  0
    2.1630   -4.6012    0.0000 H   0  0  0  0  0  0  0  0  0  0  0  0
    2.8043   -4.9714    0.0000 H   0  0  0  0  0  0  0  0  0  0  0  0
    4.3666   -3.6945    0.0000 H   0  0  0  0  0  0  0  0  0  0  0  0
    3.7253   -3.3242    0.0000 H   0  0  0  0  0  0  0  0  0  0  0  0
    3.4005   -5.3156    0.0000 H   0  0  0  0  0  0  0  0  0  0  0  0
    4.0418   -5.6859    0.0000 H   0  0  0  0  0  0  0  0  0  0  0  0
    5.6041   -4.4089    0.0000 H   0  0  0  0  0  0  0  0  0  0  0  0
    4.9628   -4.0387    0.0000 H   0  0  0  0  0  0  0  0  0  0  0  0
    4.6380   -6.0301    0.0000 H   0  0  0  0  0  0  0  0  0  0  0  0
    5.2793   -6.4004    0.0000 H   0  0  0  0  0  0  0  0  0  0  0  0
    6.1523   -6.4018    0.0000 H   0  0  0  0  0  0  0  0  0  0  0  0
    6.9773   -5.5768    0.0000 H   0  0  0  0  0  0  0  0  0  0  0  0
    6.1523   -4.7518    0.0000 H   0  0  0  0  0  0  0  0  0  0  0  0
    0.1632   -4.3406    0.0000 H   0  0  0  0  0  0  0  0  0  0  0  0
    1.0918   -3.1314    0.0000 H   0  0  0  0  0  0  0  0  0  0  0  0
    0.2682   -4.8294    0.0000 H   0  0  0  0  0  0  0  0  0  0  0  0
    0.6384   -5.4707    0.0000 H   0  0  0  0  0  0  0  0  0  0  0  0
    2.6012   -5.4147    0.0000 H   0  0  0  0  0  0  0  0  0  0  0  0
    1.0918   -5.6064    0.0000 H   0  0  0  0  0  0  0  0  0  0  0  0
    1.1743   -6.5492    0.0000 H   0  0  0  0  0  0  0  0  0  0  0  0
    1.6630   -6.8313    0.0000 H   0  0  0  0  0  0  0  0  0  0  0  0
    3.3443   -6.3834    0.0000 H   0  0  0  0  0  0  0  0  0  0  0  0
    2.9741   -5.7421    0.0000 H   0  0  0  0  0  0  0  0  0  0  0  0
    1.8244   -7.6988    0.0000 H   0  0  0  0  0  0  0  0  0  0  0  0
    2.5382   -8.0812    0.0000 H   0  0  0  0  0  0  0  0  0  0  0  0
    4.0588   -7.6209    0.0000 H   0  0  0  0  0  0  0  0  0  0  0  0
    3.6885   -6.9796    0.0000 H   0  0  0  0  0  0  0  0  0  0  0  0
    2.6471   -9.0724    0.0000 H   0  0  0  0  0  0  0  0  0  0  0  0
    3.6438   -9.2106    0.0000 H   0  0  0  0  0  0  0  0  0  0  0  0
    4.0327   -8.2825    0.0000 H   0  0  0  0  0  0  0  0  0  0  0  0
   -0.0760   -1.2046    0.0000 H   0  0  0  0  0  0  0  0  0  0  0  0
   -0.4463   -1.8459    0.0000 H   0  0  0  0  0  0  0  0  0  0  0  0
    1.8063   -1.0689    0.0000 H   0  0  0  0  0  0  0  0  0  0  0  0
    1.2931   -2.5399    0.0000 H   0  0  0  0  0  0  0  0  0  0  0  0
    3.1527   -0.9511    0.0000 H   0  0  0  0  0  0  0  0  0  0  0  0
    2.6640   -0.6689    0.0000 H   0  0  0  0  0  0  0  0  0  0  0  0
    2.8649   -2.6311    0.0000 H   0  0  0  0  0  0  0  0  0  0  0  0
    3.6055   -2.6311    0.0000 H   0  0  0  0  0  0  0  0  0  0  0  0
    4.6727   -1.0841    0.0000 H   0  0  0  0  0  0  0  0  0  0  0  0
    3.9846   -0.6571    0.0000 H   0  0  0  0  0  0  0  0  0  0  0  0
    4.2939   -2.6311    0.0000 H   0  0  0  0  0  0  0  0  0  0  0  0
    5.0344   -2.6311    0.0000 H   0  0  0  0  0  0  0  0  0  0  0  0
    6.0083   -0.9484    0.0000 H   0  0  0  0  0  0  0  0  0  0  0  0
    5.5164   -0.6680    0.0000 H   0  0  0  0  0  0  0  0  0  0  0  0
    5.5229   -2.4901    0.0000 H   0  0  0  0  0  0  0  0  0  0  0  0
    6.5371   -2.5892    0.0000 H   0  0  0  0  0  0  0  0  0  0  0  0
    6.8739   -1.6274    0.0000 H   0  0  0  0  0  0  0  0  0  0  0  0
  1  2  1  0  0  0  0
  2  3  1  0  0  0  0
  3  4  1  0  0  0  0
  4  5  1  0  0  0  0
  5  6  1  0  0  0  0
  6  7  1  0  0  0  0
  7  8  1  0  0  0  0
  8  9  1  0  0  0  0
  9 10  1  0  0  0  0
 10 11  1  0  0  0  0
 11 12  1  0  0  0  0
 12 13  1  0  0  0  0
 13 14  1  0  0  0  0
 14 15  1  0  0  0  0
 15 16  1  0  0  0  0
 16 17  1  0  0  0  0
 17 18  1  0  0  0  0
 18 19  1  0  0  0  0
 10 20  1  0  0  0  0
 20 21  1  0  0  0  0
 21 22  1  0  0  0  0
 22 23  1  0  0  0  0
 23 24  1  0  0  0  0
 24 25  1  0  0  0  0
 25 26  1  0  0  0  0
 26 27  1  0  0  0  0
 27 28  1  0  0  0  0
 10 29  1  0  0  0  0
 29 30  1  0  0  0  0
 30 31  1  0  0  0  0
 31 32  1  0  0  0  0
 32 33  1  0  0  0  0
 33 34  1  0  0  0  0
 34 35  1  0  0  0  0
 35 36  1  0  0  0  0
 36 37  1  0  0  0  0
  1 38  1  0  0  0  0
  1 39  1  0  0  0  0
  1 40  1  0  0  0  0
  2 41  1  0  0  0  0
  2 42  1  0  0  0  0
  3 43  1  0  0  0  0
  3 44  1  0  0  0  0
  4 45  1  0  0  0  0
  4 46  1  0  0  0  0
  5 47  1  0  0  0  0
  5 48  1  0  0  0  0
  6 49  1  0  0  0  0
  6 50  1  0  0  0  0
  7 51  1  0  0  0  0
  7 52  1  0  0  0  0
  9 53  1  0  0  0  0
  9 54  1  0  0  0  0
 11 55  1  0  0  0  0
 11 56  1  0  0  0  0
 13 57  1  0  0  0  0
 13 58  1  0  0  0  0
 14 59  1  0  0  0  0
 14 60  1  0  0  0  0
 15 61  1  0  0  0  0
 15 62  1  0  0  0  0
 16 63  1  0  0  0  0
 16 64  1  0  0  0  0
 17 65  1  0  0  0  0
 17 66  1  0  0  0  0
 18 67  1  0  0  0  0
 18 68  1  0  0  0  0
 19 69  1  0  0  0  0
 19 70  1  0  0  0  0
 19 71  1  0  0  0  0
 20 72  1  0  0  0  0
 20 73  1  0  0  0  0
 22 74  1  0  0  0  0
 22 75  1  0  0  0  0
 23 76  1  0  0  0  0
 23 77  1  0  0  0  0
 24 78  1  0  0  0  0
 24 79  1  0  0  0  0
 25 80  1  0  0  0  0
 25 81  1  0  0  0  0
 26 82  1  0  0  0  0
 26 83  1  0  0  0  0
 27 84  1  0  0  0  0
 27 85  1  0  0  0  0
 28 86  1  0  0  0  0
 28 87  1  0  0  0  0
 28 88  1  0  0  0  0
 29 89  1  0  0  0  0
 29 90  1  0  0  0  0
 31 91  1  0  0  0  0
 31 92  1  0  0  0  0
 32 93  1  0  0  0  0
 32 94  1  0  0  0  0
 33 95  1  0  0  0  0
 33 96  1  0  0  0  0
 34 97  1  0  0  0  0
 34 98  1  0  0  0  0
 35 99  1  0  0  0  0
 35100  1  0  0  0  0
 36101  1  0  0  0  0
 36102  1  0  0  0  0
 37103  1  0  0  0  0
 37104  1  0  0  0  0
 37105  1  0  0  0  0
M  END
> <id>
2133

> <casrn>
67762-53-2

> <smiles (First)>


> <Molecular weight>
528.890625

> <name>
Fatty acids, C5-9, tetraesters with pentaerythritol

> <Outcome>
0

> <Molecule (RDKit Mol) (InChI Code)>
InChI=1S/C33H68O4/c1-5-9-13-17-21-25-34-29-33(30-35-26-22-18-14-10-6-2,31-36-27-23-19-15-11-7-3)32-37-28-24-20-16-12-8-4/h5-32H2,1-4H3

> <reference>
ECHA

> <molecule_form>
A

$$$$

  Mrv1812 01171911372D          

 23 23  0  0  0  0            999 V2000
   -0.0558    2.5556    0.0000 C   0  0  0  0  0  0  0  0  0  0  0  0
    0.6586    2.1431    0.0000 C   0  0  0  0  0  0  0  0  0  0  0  0
    1.3731    2.5556    0.0000 C   0  0  0  0  0  0  0  0  0  0  0  0
    0.6586    1.3181    0.0000 C   0  0  0  0  0  0  0  0  0  0  0  0
    1.3731    0.9056    0.0000 C   0  0  0  0  0  0  0  0  0  0  0  0
    1.3731    0.0806    0.0000 C   0  0  0  0  0  0  0  0  0  0  0  0
    0.6586   -0.3319    0.0000 C   0  0  0  0  0  0  0  0  0  0  0  0
    0.6586   -1.1569    0.0000 N   0  0  0  0  0  0  0  0  0  0  0  0
    1.3731   -1.5694    0.0000 C   0  0  0  0  0  0  0  0  0  0  0  0
    2.0876   -1.9819    0.0000 O   0  0  0  0  0  0  0  0  0  0  0  0
   -0.0558    0.0806    0.0000 C   0  0  0  0  0  0  0  0  0  0  0  0
   -0.0558    0.9056    0.0000 C   0  0  0  0  0  0  0  0  0  0  0  0
    0.3567    3.2700    0.0000 H   0  0  0  0  0  0  0  0  0  0  0  0
   -0.7703    2.9681    0.0000 H   0  0  0  0  0  0  0  0  0  0  0  0
   -0.4683    1.8411    0.0000 H   0  0  0  0  0  0  0  0  0  0  0  0
    0.6586    2.9681    0.0000 H   0  0  0  0  0  0  0  0  0  0  0  0
    1.5866    1.7587    0.0000 H   0  0  0  0  0  0  0  0  0  0  0  0
    2.1981    2.5556    0.0000 H   0  0  0  0  0  0  0  0  0  0  0  0
    1.5866    3.3524    0.0000 H   0  0  0  0  0  0  0  0  0  0  0  0
    2.1919    0.8046    0.0000 H   0  0  0  0  0  0  0  0  0  0  0  0
    2.0876   -0.3319    0.0000 H   0  0  0  0  0  0  0  0  0  0  0  0
   -0.7703   -0.3319    0.0000 H   0  0  0  0  0  0  0  0  0  0  0  0
   -0.7703    1.3181    0.0000 H   0  0  0  0  0  0  0  0  0  0  0  0
  1  2  1  0  0  0  0
  2  3  1  0  0  0  0
  2  4  1  0  0  0  0
  4  5  4  0  0  0  0
  5  6  4  0  0  0  0
  6  7  4  0  0  0  0
  7  8  1  0  0  0  0
  8  9  2  0  0  0  0
  9 10  2  0  0  0  0
  7 11  4  0  0  0  0
 11 12  4  0  0  0  0
  4 12  4  0  0  0  0
  1 13  1  0  0  0  0
  1 14  1  0  0  0  0
  1 15  1  0  0  0  0
  2 16  1  0  0  0  0
  3 17  1  0  0  0  0
  3 18  1  0  0  0  0
  3 19  1  0  0  0  0
  5 20  1  0  0  0  0
  6 21  1  0  0  0  0
 11 22  1  0  0  0  0
 12 23  1  0  0  0  0
M  END
> <id>
1173

> <casrn>
31027-31-3

> <smiles (First)>


> <Molecular weight>
161.200439453125

> <name>
1-isocyanato-4-(propan-2-yl)benzene

> <Outcome>
1

> <Molecule (RDKit Mol) (InChI Code)>
InChI=1S/C10H11NO/c1-8(2)9-3-5-10(6-4-9)11-7-12/h3-6,8H,1-2H3

> <reference>
ECHA

> <molecule_form>
A

$$$$

  Mrv1812 01171911372D          

 11 10  0  0  0  0            999 V2000
    0.8250   -0.8250    0.0000 C   0  0  0  0  0  0  0  0  0  0  0  0
    0.8250    0.0000    0.0000 Sn  0  0  0  0  0  0  0  0  0  0  0  0
    0.8250    0.8250    0.0000 C   0  0  0  0  0  0  0  0  0  0  0  0
    1.6500   -0.0000    0.0000 Cl  0  0  0  0  0  0  0  0  0  0  0  0
    0.0000    0.0000    0.0000 Cl  0  0  0  0  0  0  0  0  0  0  0  0
    0.0000   -0.8250    0.0000 H   0  0  0  0  0  0  0  0  0  0  0  0
    0.8250   -1.6500    0.0000 H   0  0  0  0  0  0  0  0  0  0  0  0
    1.6500   -0.8250    0.0000 H   0  0  0  0  0  0  0  0  0  0  0  0
    1.6500    0.8250    0.0000 H   0  0  0  0  0  0  0  0  0  0  0  0
    0.8250    1.6500    0.0000 H   0  0  0  0  0  0  0  0  0  0  0  0
    0.0000    0.8250    0.0000 H   0  0  0  0  0  0  0  0  0  0  0  0
  1  2  1  0  0  0  0
  2  3  1  0  0  0  0
  2  4  1  0  0  0  0
  2  5  1  0  0  0  0
  1  6  1  0  0  0  0
  1  7  1  0  0  0  0
  1  8  1  0  0  0  0
  3  9  1  0  0  0  0
  3 10  1  0  0  0  0
  3 11  1  0  0  0  0
M  END
> <id>
3013; 3012; 3014; 3011

> <casrn>
753-73-1

> <smiles (First)>


> <Molecular weight>
219.68504333496094

> <name>
dimethyltin dichloride

> <Outcome>
1

> <Molecule (RDKit Mol) (InChI Code)>
InChI=1S/2CH3.2ClH.Sn/h2*1H3;2*1H;/q;;;;+2/p-2

> <reference>
ECHA

> <molecule_form>
A

$$$$

  Mrv1812 01171911372D          

 48 50  0  0  0  0            999 V2000
    0.0641   -4.9672    0.0000 C   0  0  0  0  0  0  0  0  0  0  0  0
    0.7786   -5.3797    0.0000 O   0  0  0  0  0  0  0  0  0  0  0  0
    0.7786   -6.2047    0.0000 C   0  0  0  0  0  0  0  0  0  0  0  0
    1.4931   -6.6172    0.0000 C   0  0  0  0  0  0  0  0  0  0  0  0
    1.4931   -7.4422    0.0000 C   0  0  0  0  0  0  0  0  0  0  0  0
    0.7786   -7.8547    0.0000 C   0  0  0  0  0  0  0  0  0  0  0  0
    0.7786   -8.6797    0.0000 N   0  0  0  0  0  0  0  0  0  0  0  0
    1.4931   -9.0922    0.0000 N   0  0  0  0  0  0  0  0  0  0  0  0
    1.4931   -9.9172    0.0000 C   0  0  0  0  0  0  0  0  0  0  0  0
    2.2076  -10.3297    0.0000 C   0  0  0  0  0  0  0  0  0  0  0  0
    2.2076  -11.1547    0.0000 C   0  0  0  0  0  0  0  0  0  0  0  0
    1.4931  -11.5672    0.0000 C   0  0  0  0  0  0  0  0  0  0  0  0
    1.4931  -12.3922    0.0000 N   0  0  0  0  0  0  0  0  0  0  0  0
    0.7786  -12.8047    0.0000 N   0  0  0  0  0  0  0  0  0  0  0  0
    0.7786  -13.6297    0.0000 C   0  0  0  0  0  0  0  0  0  0  0  0
    1.4931  -14.0422    0.0000 C   0  0  0  0  0  0  0  0  0  0  0  0
    1.4931  -14.8672    0.0000 C   0  0  0  0  0  0  0  0  0  0  0  0
    0.7786  -15.2797    0.0000 C   0  0  0  0  0  0  0  0  0  0  0  0
    0.0641  -14.8672    0.0000 C   0  0  0  0  0  0  0  0  0  0  0  0
   -0.6503  -15.2797    0.0000 S   0  0  0  0  0  0  0  0  0  0  0  0
   -1.3648  -15.6922    0.0000 O   0  0  0  0  0  0  0  0  0  0  0  0
   -1.0628  -14.5652    0.0000 O   0  0  0  0  0  0  0  0  0  0  0  0
   -0.2378  -15.9942    0.0000 O   0  0  0  0  0  0  0  0  0  0  0  0
    0.0641  -14.0422    0.0000 C   0  0  0  0  0  0  0  0  0  0  0  0
    0.7786  -11.1547    0.0000 C   0  0  0  0  0  0  0  0  0  0  0  0
    0.7786  -10.3297    0.0000 C   0  0  0  0  0  0  0  0  0  0  0  0
    0.0641   -9.9172    0.0000 O   0  0  0  0  0  0  0  0  0  0  0  0
    0.0641   -9.0922    0.0000 C   0  0  0  0  0  0  0  0  0  0  0  0
    0.0641   -7.4422    0.0000 C   0  0  0  0  0  0  0  0  0  0  0  0
    0.0641   -6.6172    0.0000 C   0  0  0  0  0  0  0  0  0  0  0  0
    0.4766   -4.2527    0.0000 H   0  0  0  0  0  0  0  0  0  0  0  0
   -0.6503   -4.5547    0.0000 H   0  0  0  0  0  0  0  0  0  0  0  0
   -0.3484   -5.6817    0.0000 H   0  0  0  0  0  0  0  0  0  0  0  0
    2.2076   -6.2047    0.0000 H   0  0  0  0  0  0  0  0  0  0  0  0
    2.2076   -7.8547    0.0000 H   0  0  0  0  0  0  0  0  0  0  0  0
    2.9220   -9.9172    0.0000 H   0  0  0  0  0  0  0  0  0  0  0  0
    2.9220  -11.5672    0.0000 H   0  0  0  0  0  0  0  0  0  0  0  0
    2.2076  -13.6297    0.0000 H   0  0  0  0  0  0  0  0  0  0  0  0
    2.2076  -15.2797    0.0000 H   0  0  0  0  0  0  0  0  0  0  0  0
    0.7786  -16.1047    0.0000 H   0  0  0  0  0  0  0  0  0  0  0  0
   -0.6503  -16.7086    0.0000 H   0  0  0  0  0  0  0  0  0  0  0  0
   -0.6503  -13.6297    0.0000 H   0  0  0  0  0  0  0  0  0  0  0  0
    0.0641  -11.5672    0.0000 H   0  0  0  0  0  0  0  0  0  0  0  0
    0.0641   -8.2672    0.0000 H   0  0  0  0  0  0  0  0  0  0  0  0
   -0.6503   -8.6797    0.0000 H   0  0  0  0  0  0  0  0  0  0  0  0
   -0.6503   -9.5047    0.0000 H   0  0  0  0  0  0  0  0  0  0  0  0
   -0.7609   -7.4422    0.0000 H   0  0  0  0  0  0  0  0  0  0  0  0
   -0.6503   -6.2047    0.0000 H   0  0  0  0  0  0  0  0  0  0  0  0
  1  2  1  0  0  0  0
  2  3  1  0  0  0  0
  3  4  4  0  0  0  0
  4  5  4  0  0  0  0
  5  6  4  0  0  0  0
  7  6  1  4  0  0  0
  7  8  2  0  0  0  0
  8  9  1  0  0  0  0
  9 10  4  0  0  0  0
 10 11  4  0  0  0  0
 11 12  4  0  0  0  0
 13 12  1  4  0  0  0
 13 14  2  0  0  0  0
 14 15  1  0  0  0  0
 15 16  4  0  0  0  0
 16 17  4  0  0  0  0
 17 18  4  0  0  0  0
 18 19  4  0  0  0  0
 19 20  1  0  0  0  0
 20 21  2  0  0  0  0
 20 22  2  0  0  0  0
 20 23  1  0  0  0  0
 19 24  4  0  0  0  0
 15 24  4  0  0  0  0
 12 25  4  0  0  0  0
 25 26  4  0  0  0  0
  9 26  4  0  0  0  0
 26 27  1  0  0  0  0
 27 28  1  0  0  0  0
  6 29  4  0  0  0  0
 29 30  4  0  0  0  0
  3 30  4  0  0  0  0
  1 31  1  0  0  0  0
  1 32  1  0  0  0  0
  1 33  1  0  0  0  0
  4 34  1  0  0  0  0
  5 35  1  0  0  0  0
 10 36  1  0  0  0  0
 11 37  1  0  0  0  0
 16 38  1  0  0  0  0
 17 39  1  0  0  0  0
 18 40  1  0  0  0  0
 23 41  1  0  0  0  0
 24 42  1  0  0  0  0
 25 43  1  0  0  0  0
 28 44  1  0  0  0  0
 28 45  1  0  0  0  0
 28 46  1  0  0  0  0
 29 47  1  0  0  0  0
 30 48  1  0  0  0  0
M  END
> <id>
3856; 3852; 3853; 3855; 3854

> <casrn>
63405-85-6

> <smiles (First)>


> <Molecular weight>
425.4377746582031

> <name>
sodium 3-({3-methoxy-4-[(4-methoxyphenyl)diazenyl]phenyl}diazenyl)benzenesulfonate

> <Outcome>
1

> <Molecule (RDKit Mol) (InChI Code)>
InChI=1S/C20H18N4O5S/c1-28-17-9-6-14(7-10-17)21-24-19-11-8-16(13-20(19)29-2)23-22-15-4-3-5-18(12-15)30(25,26)27/h3-13H,1-2H3,(H,25,26,27)

> <reference>
ECHA

> <molecule_form>
A

$$$$

  Mrv1812 01171911372D          

 22 21  0  0  0  0            999 V2000
    1.0461    1.4273    0.0000 C   0  0  0  0  0  0  0  0  0  0  0  0
    1.7605    1.8398    0.0000 C   0  0  0  0  0  0  0  0  0  0  0  0
    2.4750    1.4273    0.0000 C   0  0  0  0  0  0  0  0  0  0  0  0
    3.1895    1.8398    0.0000 C   0  0  0  0  0  0  0  0  0  0  0  0
    3.9040    1.4273    0.0000 O   0  0  0  0  0  0  0  0  0  0  0  0
    4.6184    1.8398    0.0000 C   0  0  0  0  0  0  0  0  0  0  0  0
    5.3329    1.4273    0.0000 C   0  0  0  0  0  0  0  0  0  0  0  0
    6.0474    1.8398    0.0000 O   0  0  0  0  0  0  0  0  0  0  0  0
    0.6336    2.1418    0.0000 H   0  0  0  0  0  0  0  0  0  0  0  0
    0.3316    1.0148    0.0000 H   0  0  0  0  0  0  0  0  0  0  0  0
    1.4586    0.7128    0.0000 H   0  0  0  0  0  0  0  0  0  0  0  0
    2.1308    2.5770    0.0000 H   0  0  0  0  0  0  0  0  0  0  0  0
    1.3903    2.5770    0.0000 H   0  0  0  0  0  0  0  0  0  0  0  0
    2.1048    0.6900    0.0000 H   0  0  0  0  0  0  0  0  0  0  0  0
    2.8453    0.6900    0.0000 H   0  0  0  0  0  0  0  0  0  0  0  0
    3.5597    2.5770    0.0000 H   0  0  0  0  0  0  0  0  0  0  0  0
    2.8192    2.5770    0.0000 H   0  0  0  0  0  0  0  0  0  0  0  0
    4.9887    2.5770    0.0000 H   0  0  0  0  0  0  0  0  0  0  0  0
    4.2482    2.5770    0.0000 H   0  0  0  0  0  0  0  0  0  0  0  0
    4.9626    0.6900    0.0000 H   0  0  0  0  0  0  0  0  0  0  0  0
    5.7032    0.6900    0.0000 H   0  0  0  0  0  0  0  0  0  0  0  0
    6.7618    1.4273    0.0000 H   0  0  0  0  0  0  0  0  0  0  0  0
  1  2  1  0  0  0  0
  2  3  1  0  0  0  0
  3  4  1  0  0  0  0
  4  5  1  0  0  0  0
  5  6  1  0  0  0  0
  6  7  1  0  0  0  0
  7  8  1  0  0  0  0
  1  9  1  0  0  0  0
  1 10  1  0  0  0  0
  1 11  1  0  0  0  0
  2 12  1  0  0  0  0
  2 13  1  0  0  0  0
  3 14  1  0  0  0  0
  3 15  1  0  0  0  0
  4 16  1  0  0  0  0
  4 17  1  0  0  0  0
  6 18  1  0  0  0  0
  6 19  1  0  0  0  0
  7 20  1  0  0  0  0
  7 21  1  0  0  0  0
  8 22  1  0  0  0  0
M  END
> <id>
1424; 1425; 1421; 1422; 1423

> <casrn>
111-76-2

> <smiles (First)>


> <Molecular weight>
118.17416381835939

> <name>
2-butoxyethan-1-ol

> <Outcome>
1

> <Molecule (RDKit Mol) (InChI Code)>
InChI=1S/C6H14O2/c1-2-3-5-8-6-4-7/h7H,2-6H2,1H3

> <reference>
ECHA

> <molecule_form>
V

$$$$

  Mrv1812 01171911372D          

 14 13  0  0  0  0            999 V2000
    1.2375    0.7145    0.0000 F   0  0  0  0  0  0  0  0  0  0  0  0
    0.8250    0.0000    0.0000 C   0  0  0  0  0  0  0  0  0  0  0  0
    1.2375   -0.7145    0.0000 F   0  0  0  0  0  0  0  0  0  0  0  0
   -0.0000    0.0000    0.0000 C   0  0  0  0  0  0  0  0  0  0  0  0
   -0.4125    0.7145    0.0000 F   0  0  0  0  0  0  0  0  0  0  0  0
   -0.4125   -0.7145    0.0000 O   0  0  0  0  0  0  0  0  0  0  0  0
   -1.2375   -0.7145    0.0000 C   0  0  0  0  0  0  0  0  0  0  0  0
   -1.2375    0.1105    0.0000 F   0  0  0  0  0  0  0  0  0  0  0  0
   -1.2375   -1.5395    0.0000 F   0  0  0  0  0  0  0  0  0  0  0  0
   -2.0625   -0.7145    0.0000 O   0  0  0  0  0  0  0  0  0  0  0  0
   -2.4750   -1.4289    0.0000 C   0  0  0  0  0  0  0  0  0  0  0  0
   -2.8875   -2.1434    0.0000 F   0  0  0  0  0  0  0  0  0  0  0  0
   -3.1895   -1.0164    0.0000 F   0  0  0  0  0  0  0  0  0  0  0  0
   -1.7605   -1.8414    0.0000 F   0  0  0  0  0  0  0  0  0  0  0  0
  1  2  1  0  0  0  0
  2  3  1  0  0  0  0
  2  4  2  0  0  0  0
  4  5  1  0  0  0  0
  4  6  1  0  0  0  0
  6  7  1  0  0  0  0
  7  8  1  0  0  0  0
  7  9  1  0  0  0  0
  7 10  1  0  0  0  0
 10 11  1  0  0  0  0
 11 12  1  0  0  0  0
 11 13  1  0  0  0  0
 11 14  1  0  0  0  0
M  END
> <id>
4293

> <casrn>
700874-87-9

> <smiles (First)>


> <Molecular weight>
232.02882385253906

> <name>
unnamed [700874-87-9]

> <Outcome>
0

> <Molecule (RDKit Mol) (InChI Code)>
InChI=1S/C4F8O2/c5-1(6)2(7)13-4(11,12)14-3(8,9)10

> <reference>
ECHA

> <molecule_form>
V

$$$$

  Mrv1812 01171911372D          

 39 38  0  0  0  0            999 V2000
   -0.7748   -1.9728    0.0000 C   0  0  0  0  0  0  0  0  0  0  0  0
   -0.7748   -1.1478    0.0000 C   0  0  0  0  0  0  0  0  0  0  0  0
   -0.0603   -0.7353    0.0000 C   0  0  0  0  0  0  0  0  0  0  0  0
   -0.0603    0.0897    0.0000 O   0  0  0  0  0  0  0  0  0  0  0  0
    0.6542   -1.1478    0.0000 O   0  0  0  0  0  0  0  0  0  0  0  0
    1.3686   -0.7353    0.0000 Si  0  0  0  0  0  0  0  0  0  0  0  0
    2.0831   -0.3228    0.0000 C   0  0  0  0  0  0  0  0  0  0  0  0
    2.0831    0.5022    0.0000 C   0  0  0  0  0  0  0  0  0  0  0  0
    2.7976   -0.7353    0.0000 C   0  0  0  0  0  0  0  0  0  0  0  0
    1.7811   -1.4497    0.0000 C   0  0  0  0  0  0  0  0  0  0  0  0
    2.6061   -1.4497    0.0000 C   0  0  0  0  0  0  0  0  0  0  0  0
    1.3686   -2.1642    0.0000 C   0  0  0  0  0  0  0  0  0  0  0  0
    0.9561   -0.0208    0.0000 C   0  0  0  0  0  0  0  0  0  0  0  0
    1.3686    0.6937    0.0000 C   0  0  0  0  0  0  0  0  0  0  0  0
    0.2887    0.4641    0.0000 C   0  0  0  0  0  0  0  0  0  0  0  0
   -1.4893   -2.3853    0.0000 H   0  0  0  0  0  0  0  0  0  0  0  0
   -0.0603   -2.3853    0.0000 H   0  0  0  0  0  0  0  0  0  0  0  0
   -1.4893   -0.7353    0.0000 H   0  0  0  0  0  0  0  0  0  0  0  0
    1.3686    0.0897    0.0000 H   0  0  0  0  0  0  0  0  0  0  0  0
    2.8230    0.1374    0.0000 H   0  0  0  0  0  0  0  0  0  0  0  0
    2.7376    1.0045    0.0000 H   0  0  0  0  0  0  0  0  0  0  0  0
    1.9221    1.3114    0.0000 H   0  0  0  0  0  0  0  0  0  0  0  0
    3.2509   -1.4245    0.0000 H   0  0  0  0  0  0  0  0  0  0  0  0
    3.6139   -0.8548    0.0000 H   0  0  0  0  0  0  0  0  0  0  0  0
    3.4296   -0.2050    0.0000 H   0  0  0  0  0  0  0  0  0  0  0  0
    2.1936   -0.7353    0.0000 H   0  0  0  0  0  0  0  0  0  0  0  0
    2.0285   -2.0388    0.0000 H   0  0  0  0  0  0  0  0  0  0  0  0
    2.6222   -2.2746    0.0000 H   0  0  0  0  0  0  0  0  0  0  0  0
    3.2063   -2.0158    0.0000 H   0  0  0  0  0  0  0  0  0  0  0  0
    0.7585   -1.6089    0.0000 H   0  0  0  0  0  0  0  0  0  0  0  0
    0.6960   -2.6419    0.0000 H   0  0  0  0  0  0  0  0  0  0  0  0
    1.6919   -2.9232    0.0000 H   0  0  0  0  0  0  0  0  0  0  0  0
    0.3430   -0.5728    0.0000 H   0  0  0  0  0  0  0  0  0  0  0  0
    1.2809    1.5140    0.0000 H   0  0  0  0  0  0  0  0  0  0  0  0
    0.7006    1.1778    0.0000 H   0  0  0  0  0  0  0  0  0  0  0  0
    0.5618    0.5217    0.0000 H   0  0  0  0  0  0  0  0  0  0  0  0
    0.1206    1.2718    0.0000 H   0  0  0  0  0  0  0  0  0  0  0  0
   -0.3746    0.9548    0.0000 H   0  0  0  0  0  0  0  0  0  0  0  0
   -0.5328    0.3885    0.0000 H   0  0  0  0  0  0  0  0  0  0  0  0
  1  2  2  0  0  0  0
  2  3  1  0  0  0  0
  3  4  2  0  0  0  0
  3  5  1  0  0  0  0
  5  6  1  0  0  0  0
  6  7  1  0  0  0  0
  7  8  1  0  0  0  0
  7  9  1  0  0  0  0
  6 10  1  0  0  0  0
 10 11  1  0  0  0  0
 10 12  1  0  0  0  0
  6 13  1  0  0  0  0
 13 14  1  0  0  0  0
 13 15  1  0  0  0  0
  1 16  1  4  0  0  0
  1 17  1  0  0  0  0
  2 18  1  0  0  0  0
  7 19  1  0  0  0  0
  8 20  1  0  0  0  0
  8 21  1  0  0  0  0
  8 22  1  0  0  0  0
  9 23  1  0  0  0  0
  9 24  1  0  0  0  0
  9 25  1  0  0  0  0
 10 26  1  0  0  0  0
 11 27  1  0  0  0  0
 11 28  1  0  0  0  0
 11 29  1  0  0  0  0
 12 30  1  0  0  0  0
 12 31  1  0  0  0  0
 12 32  1  0  0  0  0
 13 33  1  0  0  0  0
 14 34  1  0  0  0  0
 14 35  1  0  0  0  0
 14 36  1  0  0  0  0
 15 37  1  0  0  0  0
 15 38  1  0  0  0  0
 15 39  1  0  0  0  0
M  END
> <id>
627

> <casrn>
157859-20-6

> <smiles (First)>


> <Molecular weight>
228.40325927734375

> <name>
-

> <Outcome>
0

> <Molecule (RDKit Mol) (InChI Code)>
InChI=1S/C12H24O2Si/c1-8-12(13)14-15(9(2)3,10(4)5)11(6)7/h8-11H,1H2,2-7H3

> <reference>
ECHA

> <molecule_form>
A

$$$$

  Mrv1812 01171911372D          

 91 90  0  0  0  0            999 V2000
   -5.6479    2.5313    0.0000 C   0  0  0  0  0  0  0  0  0  0  0  0
   -4.9334    2.9438    0.0000 C   0  0  0  0  0  0  0  0  0  0  0  0
   -4.2190    2.5313    0.0000 C   0  0  0  0  0  0  0  0  0  0  0  0
   -3.5045    2.9438    0.0000 C   0  0  0  0  0  0  0  0  0  0  0  0
   -2.7900    2.5313    0.0000 C   0  0  0  0  0  0  0  0  0  0  0  0
   -2.7900    1.7063    0.0000 C   0  0  0  0  0  0  0  0  0  0  0  0
   -2.0755    1.2938    0.0000 C   0  0  0  0  0  0  0  0  0  0  0  0
   -2.0755    2.9438    0.0000 C   0  0  0  0  0  0  0  0  0  0  0  0
   -1.3611    2.5313    0.0000 O   0  0  0  0  0  0  0  0  0  0  0  0
   -0.6466    2.9438    0.0000 C   0  0  0  0  0  0  0  0  0  0  0  0
   -0.6466    3.7688    0.0000 O   0  0  0  0  0  0  0  0  0  0  0  0
    0.0679    2.5313    0.0000 C   0  0  0  0  0  0  0  0  0  0  0  0
    0.7823    2.9438    0.0000 S   0  0  0  0  0  0  0  0  0  0  0  0
    1.4968    2.5313    0.0000 Sn  0  0  0  0  0  0  0  0  0  0  0  0
    1.0843    1.8168    0.0000 C   0  0  0  0  0  0  0  0  0  0  0  0
    1.4968    1.1023    0.0000 C   0  0  0  0  0  0  0  0  0  0  0  0
    1.0843    0.3879    0.0000 C   0  0  0  0  0  0  0  0  0  0  0  0
    0.2593    0.3879    0.0000 C   0  0  0  0  0  0  0  0  0  0  0  0
    1.9093    3.2457    0.0000 C   0  0  0  0  0  0  0  0  0  0  0  0
    2.7343    3.2457    0.0000 C   0  0  0  0  0  0  0  0  0  0  0  0
    3.1468    3.9602    0.0000 C   0  0  0  0  0  0  0  0  0  0  0  0
    3.9718    3.9602    0.0000 C   0  0  0  0  0  0  0  0  0  0  0  0
    2.2113    2.1188    0.0000 S   0  0  0  0  0  0  0  0  0  0  0  0
    2.9258    2.5313    0.0000 C   0  0  0  0  0  0  0  0  0  0  0  0
    3.6402    2.1188    0.0000 C   0  0  0  0  0  0  0  0  0  0  0  0
    3.6402    1.2938    0.0000 O   0  0  0  0  0  0  0  0  0  0  0  0
    4.3547    2.5313    0.0000 O   0  0  0  0  0  0  0  0  0  0  0  0
    5.0692    2.1188    0.0000 C   0  0  0  0  0  0  0  0  0  0  0  0
    5.7836    2.5313    0.0000 C   0  0  0  0  0  0  0  0  0  0  0  0
    5.7836    3.3563    0.0000 C   0  0  0  0  0  0  0  0  0  0  0  0
    6.4981    3.7688    0.0000 C   0  0  0  0  0  0  0  0  0  0  0  0
    6.4981    2.1188    0.0000 C   0  0  0  0  0  0  0  0  0  0  0  0
    7.2126    2.5313    0.0000 C   0  0  0  0  0  0  0  0  0  0  0  0
    7.9270    2.1188    0.0000 C   0  0  0  0  0  0  0  0  0  0  0  0
    8.6415    2.5313    0.0000 C   0  0  0  0  0  0  0  0  0  0  0  0
   -6.0604    3.2457    0.0000 H   0  0  0  0  0  0  0  0  0  0  0  0
   -6.3624    2.1188    0.0000 H   0  0  0  0  0  0  0  0  0  0  0  0
   -5.2354    1.8168    0.0000 H   0  0  0  0  0  0  0  0  0  0  0  0
   -4.5632    3.6810    0.0000 H   0  0  0  0  0  0  0  0  0  0  0  0
   -5.3037    3.6810    0.0000 H   0  0  0  0  0  0  0  0  0  0  0  0
   -4.5892    1.7940    0.0000 H   0  0  0  0  0  0  0  0  0  0  0  0
   -3.8487    1.7940    0.0000 H   0  0  0  0  0  0  0  0  0  0  0  0
   -3.1342    3.6810    0.0000 H   0  0  0  0  0  0  0  0  0  0  0  0
   -3.8747    3.6810    0.0000 H   0  0  0  0  0  0  0  0  0  0  0  0
   -3.5045    2.1188    0.0000 H   0  0  0  0  0  0  0  0  0  0  0  0
   -3.4220    1.1760    0.0000 H   0  0  0  0  0  0  0  0  0  0  0  0
   -2.9333    0.8938    0.0000 H   0  0  0  0  0  0  0  0  0  0  0  0
   -1.9146    0.4846    0.0000 H   0  0  0  0  0  0  0  0  0  0  0  0
   -1.2513    1.2578    0.0000 H   0  0  0  0  0  0  0  0  0  0  0  0
   -1.8447    2.0858    0.0000 H   0  0  0  0  0  0  0  0  0  0  0  0
   -1.7053    3.6810    0.0000 H   0  0  0  0  0  0  0  0  0  0  0  0
   -2.4458    3.6810    0.0000 H   0  0  0  0  0  0  0  0  0  0  0  0
   -0.3024    1.7940    0.0000 H   0  0  0  0  0  0  0  0  0  0  0  0
    0.4381    1.7940    0.0000 H   0  0  0  0  0  0  0  0  0  0  0  0
    0.6593    2.5239    0.0000 H   0  0  0  0  0  0  0  0  0  0  0  0
    1.9093    1.8168    0.0000 H   0  0  0  0  0  0  0  0  0  0  0  0
    2.0271    0.4703    0.0000 H   0  0  0  0  0  0  0  0  0  0  0  0
    2.3093    0.9591    0.0000 H   0  0  0  0  0  0  0  0  0  0  0  0
    0.8286   -0.3965    0.0000 H   0  0  0  0  0  0  0  0  0  0  0  0
    1.4074   -0.3713    0.0000 H   0  0  0  0  0  0  0  0  0  0  0  0
    0.4520    1.1900    0.0000 H   0  0  0  0  0  0  0  0  0  0  0  0
   -0.4757    0.7626    0.0000 H   0  0  0  0  0  0  0  0  0  0  0  0
   -0.2767   -0.2393    0.0000 H   0  0  0  0  0  0  0  0  0  0  0  0
    1.8613    4.0693    0.0000 H   0  0  0  0  0  0  0  0  0  0  0  0
    1.2200    3.6991    0.0000 H   0  0  0  0  0  0  0  0  0  0  0  0
    3.5523    3.1381    0.0000 H   0  0  0  0  0  0  0  0  0  0  0  0
    2.3218    3.9602    0.0000 H   0  0  0  0  0  0  0  0  0  0  0  0
    3.4290    4.7355    0.0000 H   0  0  0  0  0  0  0  0  0  0  0  0
    2.8646    4.7355    0.0000 H   0  0  0  0  0  0  0  0  0  0  0  0
    4.4268    3.2720    0.0000 H   0  0  0  0  0  0  0  0  0  0  0  0
    4.7948    4.0175    0.0000 H   0  0  0  0  0  0  0  0  0  0  0  0
    4.3271    4.7048    0.0000 H   0  0  0  0  0  0  0  0  0  0  0  0
    2.1636    2.8470    0.0000 H   0  0  0  0  0  0  0  0  0  0  0  0
    2.9258    1.7063    0.0000 H   0  0  0  0  0  0  0  0  0  0  0  0
    4.6989    1.3815    0.0000 H   0  0  0  0  0  0  0  0  0  0  0  0
    5.4394    1.3815    0.0000 H   0  0  0  0  0  0  0  0  0  0  0  0
    5.0692    2.9438    0.0000 H   0  0  0  0  0  0  0  0  0  0  0  0
    5.6404    4.1687    0.0000 H   0  0  0  0  0  0  0  0  0  0  0  0
    5.1517    3.8866    0.0000 H   0  0  0  0  0  0  0  0  0  0  0  0
    6.7290    2.9767    0.0000 H   0  0  0  0  0  0  0  0  0  0  0  0
    7.3223    3.8048    0.0000 H   0  0  0  0  0  0  0  0  0  0  0  0
    6.6591    4.5779    0.0000 H   0  0  0  0  0  0  0  0  0  0  0  0
    6.1278    1.3815    0.0000 H   0  0  0  0  0  0  0  0  0  0  0  0
    6.8684    1.3815    0.0000 H   0  0  0  0  0  0  0  0  0  0  0  0
    7.7013    3.1960    0.0000 H   0  0  0  0  0  0  0  0  0  0  0  0
    7.2126    1.7063    0.0000 H   0  0  0  0  0  0  0  0  0  0  0  0
    8.0703    1.3063    0.0000 H   0  0  0  0  0  0  0  0  0  0  0  0
    8.5590    1.5885    0.0000 H   0  0  0  0  0  0  0  0  0  0  0  0
    9.4227    2.2661    0.0000 H   0  0  0  0  0  0  0  0  0  0  0  0
    9.0848    3.2271    0.0000 H   0  0  0  0  0  0  0  0  0  0  0  0
    8.0710    3.1272    0.0000 H   0  0  0  0  0  0  0  0  0  0  0  0
  1  2  1  0  0  0  0
  2  3  1  0  0  0  0
  3  4  1  0  0  0  0
  4  5  1  0  0  0  0
  5  6  1  0  0  0  0
  6  7  1  0  0  0  0
  5  8  1  0  0  0  0
  8  9  1  0  0  0  0
  9 10  1  0  0  0  0
 10 11  2  0  0  0  0
 10 12  1  0  0  0  0
 12 13  1  0  0  0  0
 13 14  1  0  0  0  0
 14 15  1  0  0  0  0
 15 16  1  0  0  0  0
 16 17  1  0  0  0  0
 17 18  1  0  0  0  0
 14 19  1  0  0  0  0
 19 20  1  0  0  0  0
 20 21  1  0  0  0  0
 21 22  1  0  0  0  0
 14 23  1  0  0  0  0
 23 24  1  0  0  0  0
 24 25  1  0  0  0  0
 25 26  2  0  0  0  0
 25 27  1  0  0  0  0
 27 28  1  0  0  0  0
 28 29  1  0  0  0  0
 29 30  1  0  0  0  0
 30 31  1  0  0  0  0
 29 32  1  0  0  0  0
 32 33  1  0  0  0  0
 33 34  1  0  0  0  0
 34 35  1  0  0  0  0
  1 36  1  0  0  0  0
  1 37  1  0  0  0  0
  1 38  1  0  0  0  0
  2 39  1  0  0  0  0
  2 40  1  0  0  0  0
  3 41  1  0  0  0  0
  3 42  1  0  0  0  0
  4 43  1  0  0  0  0
  4 44  1  0  0  0  0
  5 45  1  0  0  0  0
  6 46  1  0  0  0  0
  6 47  1  0  0  0  0
  7 48  1  0  0  0  0
  7 49  1  0  0  0  0
  7 50  1  0  0  0  0
  8 51  1  0  0  0  0
  8 52  1  0  0  0  0
 12 53  1  0  0  0  0
 12 54  1  0  0  0  0
 15 55  1  0  0  0  0
 15 56  1  0  0  0  0
 16 57  1  0  0  0  0
 16 58  1  0  0  0  0
 17 59  1  0  0  0  0
 17 60  1  0  0  0  0
 18 61  1  0  0  0  0
 18 62  1  0  0  0  0
 18 63  1  0  0  0  0
 19 64  1  0  0  0  0
 19 65  1  0  0  0  0
 20 66  1  0  0  0  0
 20 67  1  0  0  0  0
 21 68  1  0  0  0  0
 21 69  1  0  0  0  0
 22 70  1  0  0  0  0
 22 71  1  0  0  0  0
 22 72  1  0  0  0  0
 24 73  1  0  0  0  0
 24 74  1  0  0  0  0
 28 75  1  0  0  0  0
 28 76  1  0  0  0  0
 29 77  1  0  0  0  0
 30 78  1  0  0  0  0
 30 79  1  0  0  0  0
 31 80  1  0  0  0  0
 31 81  1  0  0  0  0
 31 82  1  0  0  0  0
 32 83  1  0  0  0  0
 32 84  1  0  0  0  0
 33 85  1  0  0  0  0
 33 86  1  0  0  0  0
 34 87  1  0  0  0  0
 34 88  1  0  0  0  0
 35 89  1  0  0  0  0
 35 90  1  0  0  0  0
 35 91  1  0  0  0  0
M  END
> <id>
1472

> <casrn>
10584-98-2

> <smiles (First)>


> <Molecular weight>
639.5818481445312

> <name>
2-ethylhexyl 2-{[dibutyl({2-[(2-ethylhexyl)oxy]-2-oxoethyl}sulfanyl)stannyl]sulfanyl}acetate

> <Outcome>
1

> <Molecule (RDKit Mol) (InChI Code)>
InChI=1S/2C10H20O2S.2C4H9.Sn/c2*1-3-5-6-9(4-2)7-12-10(11)8-13;2*1-3-4-2;/h2*9,13H,3-8H2,1-2H3;2*1,3-4H2,2H3;/q;;;;+2/p-2

> <reference>
ECHA

> <molecule_form>
A

$$$$

  Mrv1812 01171911372D          

176176  0  0  0  0            999 V2000
   -7.8546   -8.0803    0.0000 C   0  0  0  0  0  0  0  0  0  0  0  0
   -7.1401   -8.4928    0.0000 C   0  0  0  0  0  0  0  0  0  0  0  0
   -6.4256   -8.0803    0.0000 C   0  0  0  0  0  0  0  0  0  0  0  0
   -5.7112   -8.4928    0.0000 C   0  0  0  0  0  0  0  0  0  0  0  0
   -4.9967   -8.0803    0.0000 C   0  0  0  0  0  0  0  0  0  0  0  0
   -4.2822   -8.4928    0.0000 C   0  0  0  0  0  0  0  0  0  0  0  0
   -3.5678   -8.0803    0.0000 C   0  0  0  0  0  0  0  0  0  0  0  0
   -2.8533   -8.4928    0.0000 C   0  0  0  0  0  0  0  0  0  0  0  0
   -2.1388   -8.0803    0.0000 C   0  0  0  0  0  0  0  0  0  0  0  0
   -1.4244   -8.4928    0.0000 C   0  0  0  0  0  0  0  0  0  0  0  0
   -0.7099   -8.0803    0.0000 C   0  0  0  0  0  0  0  0  0  0  0  0
   -0.7099   -7.2553    0.0000 C   0  0  0  0  0  0  0  0  0  0  0  0
    0.0046   -6.8428    0.0000 C   0  0  0  0  0  0  0  0  0  0  0  0
    0.0046   -6.0178    0.0000 C   0  0  0  0  0  0  0  0  0  0  0  0
    0.7191   -5.6053    0.0000 C   0  0  0  0  0  0  0  0  0  0  0  0
    0.7191   -4.7803    0.0000 C   0  0  0  0  0  0  0  0  0  0  0  0
    1.4335   -4.3678    0.0000 C   0  0  0  0  0  0  0  0  0  0  0  0
    1.4335   -3.5428    0.0000 C   0  0  0  0  0  0  0  0  0  0  0  0
    0.7191   -3.1303    0.0000 O   0  0  0  0  0  0  0  0  0  0  0  0
    2.1480   -3.1303    0.0000 O   0  0  0  0  0  0  0  0  0  0  0  0
    2.1480   -2.3053    0.0000 C   0  0  0  0  0  0  0  0  0  0  0  0
    2.8625   -1.8928    0.0000 C   0  0  0  0  0  0  0  0  0  0  0  0
    3.5769   -2.3053    0.0000 O   0  0  0  0  0  0  0  0  0  0  0  0
    3.5769   -3.1303    0.0000 C   0  0  0  0  0  0  0  0  0  0  0  0
    2.8625   -3.5428    0.0000 O   0  0  0  0  0  0  0  0  0  0  0  0
    4.2914   -3.5428    0.0000 C   0  0  0  0  0  0  0  0  0  0  0  0
    4.2914   -4.3678    0.0000 C   0  0  0  0  0  0  0  0  0  0  0  0
    5.0059   -4.7803    0.0000 C   0  0  0  0  0  0  0  0  0  0  0  0
    5.0059   -5.6053    0.0000 C   0  0  0  0  0  0  0  0  0  0  0  0
    5.7204   -6.0178    0.0000 C   0  0  0  0  0  0  0  0  0  0  0  0
    5.7204   -6.8428    0.0000 C   0  0  0  0  0  0  0  0  0  0  0  0
    6.4348   -7.2553    0.0000 C   0  0  0  0  0  0  0  0  0  0  0  0
    6.4348   -8.0803    0.0000 C   0  0  0  0  0  0  0  0  0  0  0  0
    7.1493   -8.4928    0.0000 C   0  0  0  0  0  0  0  0  0  0  0  0
    7.1493   -9.3178    0.0000 C   0  0  0  0  0  0  0  0  0  0  0  0
    6.4348   -9.7303    0.0000 C   0  0  0  0  0  0  0  0  0  0  0  0
    6.4348  -10.5553    0.0000 C   0  0  0  0  0  0  0  0  0  0  0  0
    5.7204  -10.9678    0.0000 C   0  0  0  0  0  0  0  0  0  0  0  0
    5.7204  -11.7928    0.0000 C   0  0  0  0  0  0  0  0  0  0  0  0
    5.0059  -12.2053    0.0000 C   0  0  0  0  0  0  0  0  0  0  0  0
    5.0059  -13.0303    0.0000 C   0  0  0  0  0  0  0  0  0  0  0  0
    4.2914  -13.4428    0.0000 C   0  0  0  0  0  0  0  0  0  0  0  0
    2.8625   -1.0678    0.0000 C   0  0  0  0  0  0  0  0  0  0  0  0
    2.1950   -0.5829    0.0000 O   0  0  0  0  0  0  0  0  0  0  0  0
    2.4500    0.2018    0.0000 C   0  0  0  0  0  0  0  0  0  0  0  0
    3.2750    0.2018    0.0000 C   0  0  0  0  0  0  0  0  0  0  0  0
    3.7599    0.8692    0.0000 O   0  0  0  0  0  0  0  0  0  0  0  0
    3.5299   -0.5829    0.0000 C   0  0  0  0  0  0  0  0  0  0  0  0
    4.3145   -0.8378    0.0000 O   0  0  0  0  0  0  0  0  0  0  0  0
    4.9276   -0.2858    0.0000 C   0  0  0  0  0  0  0  0  0  0  0  0
    4.7561    0.5212    0.0000 O   0  0  0  0  0  0  0  0  0  0  0  0
    5.7123   -0.5407    0.0000 C   0  0  0  0  0  0  0  0  0  0  0  0
    6.3253    0.0113    0.0000 C   0  0  0  0  0  0  0  0  0  0  0  0
    7.1100   -0.2436    0.0000 C   0  0  0  0  0  0  0  0  0  0  0  0
    7.7231    0.3084    0.0000 C   0  0  0  0  0  0  0  0  0  0  0  0
    8.5077    0.0535    0.0000 C   0  0  0  0  0  0  0  0  0  0  0  0
    9.1208    0.6055    0.0000 C   0  0  0  0  0  0  0  0  0  0  0  0
    9.9054    0.3506    0.0000 C   0  0  0  0  0  0  0  0  0  0  0  0
   10.5185    0.9026    0.0000 C   0  0  0  0  0  0  0  0  0  0  0  0
   11.3031    0.6477    0.0000 C   0  0  0  0  0  0  0  0  0  0  0  0
   11.9162    1.1997    0.0000 C   0  0  0  0  0  0  0  0  0  0  0  0
   11.7447    2.0067    0.0000 C   0  0  0  0  0  0  0  0  0  0  0  0
   12.3578    2.5587    0.0000 C   0  0  0  0  0  0  0  0  0  0  0  0
   12.1863    3.3657    0.0000 C   0  0  0  0  0  0  0  0  0  0  0  0
   12.7993    3.9177    0.0000 C   0  0  0  0  0  0  0  0  0  0  0  0
   12.6278    4.7247    0.0000 C   0  0  0  0  0  0  0  0  0  0  0  0
   13.2409    5.2767    0.0000 C   0  0  0  0  0  0  0  0  0  0  0  0
   13.0694    6.0837    0.0000 C   0  0  0  0  0  0  0  0  0  0  0  0
   -7.4421   -7.3658    0.0000 H   0  0  0  0  0  0  0  0  0  0  0  0
   -8.5691   -7.6678    0.0000 H   0  0  0  0  0  0  0  0  0  0  0  0
   -8.2671   -8.7948    0.0000 H   0  0  0  0  0  0  0  0  0  0  0  0
   -7.5104   -9.2300    0.0000 H   0  0  0  0  0  0  0  0  0  0  0  0
   -6.7699   -9.2300    0.0000 H   0  0  0  0  0  0  0  0  0  0  0  0
   -6.0554   -7.3430    0.0000 H   0  0  0  0  0  0  0  0  0  0  0  0
   -6.7959   -7.3430    0.0000 H   0  0  0  0  0  0  0  0  0  0  0  0
   -6.0814   -9.2300    0.0000 H   0  0  0  0  0  0  0  0  0  0  0  0
   -5.3409   -9.2300    0.0000 H   0  0  0  0  0  0  0  0  0  0  0  0
   -4.6264   -7.3430    0.0000 H   0  0  0  0  0  0  0  0  0  0  0  0
   -5.3670   -7.3430    0.0000 H   0  0  0  0  0  0  0  0  0  0  0  0
   -4.6525   -9.2300    0.0000 H   0  0  0  0  0  0  0  0  0  0  0  0
   -3.9120   -9.2300    0.0000 H   0  0  0  0  0  0  0  0  0  0  0  0
   -3.1975   -7.3430    0.0000 H   0  0  0  0  0  0  0  0  0  0  0  0
   -3.9380   -7.3430    0.0000 H   0  0  0  0  0  0  0  0  0  0  0  0
   -3.2236   -9.2300    0.0000 H   0  0  0  0  0  0  0  0  0  0  0  0
   -2.4830   -9.2300    0.0000 H   0  0  0  0  0  0  0  0  0  0  0  0
   -2.1388   -7.2553    0.0000 H   0  0  0  0  0  0  0  0  0  0  0  0
   -1.4244   -9.3178    0.0000 H   0  0  0  0  0  0  0  0  0  0  0  0
   -0.2565   -8.7696    0.0000 H   0  0  0  0  0  0  0  0  0  0  0  0
    0.1137   -8.1283    0.0000 H   0  0  0  0  0  0  0  0  0  0  0  0
   -1.1632   -6.5660    0.0000 H   0  0  0  0  0  0  0  0  0  0  0  0
   -1.5335   -7.2073    0.0000 H   0  0  0  0  0  0  0  0  0  0  0  0
    0.4579   -7.5321    0.0000 H   0  0  0  0  0  0  0  0  0  0  0  0
    0.8282   -6.8908    0.0000 H   0  0  0  0  0  0  0  0  0  0  0  0
   -0.4488   -5.3285    0.0000 H   0  0  0  0  0  0  0  0  0  0  0  0
   -0.8190   -5.9698    0.0000 H   0  0  0  0  0  0  0  0  0  0  0  0
    1.1724   -6.2946    0.0000 H   0  0  0  0  0  0  0  0  0  0  0  0
    1.5427   -5.6533    0.0000 H   0  0  0  0  0  0  0  0  0  0  0  0
    0.2657   -4.0910    0.0000 H   0  0  0  0  0  0  0  0  0  0  0  0
   -0.1045   -4.7323    0.0000 H   0  0  0  0  0  0  0  0  0  0  0  0
    1.8869   -5.0571    0.0000 H   0  0  0  0  0  0  0  0  0  0  0  0
    2.2571   -4.4158    0.0000 H   0  0  0  0  0  0  0  0  0  0  0  0
    1.6947   -1.6160    0.0000 H   0  0  0  0  0  0  0  0  0  0  0  0
    1.3244   -2.2573    0.0000 H   0  0  0  0  0  0  0  0  0  0  0  0
    2.8625   -2.7178    0.0000 H   0  0  0  0  0  0  0  0  0  0  0  0
    5.1150   -3.4948    0.0000 H   0  0  0  0  0  0  0  0  0  0  0  0
    4.7448   -2.8535    0.0000 H   0  0  0  0  0  0  0  0  0  0  0  0
    3.4678   -4.4158    0.0000 H   0  0  0  0  0  0  0  0  0  0  0  0
    3.8381   -5.0571    0.0000 H   0  0  0  0  0  0  0  0  0  0  0  0
    5.8295   -4.7323    0.0000 H   0  0  0  0  0  0  0  0  0  0  0  0
    5.4592   -4.0910    0.0000 H   0  0  0  0  0  0  0  0  0  0  0  0
    4.1823   -5.6533    0.0000 H   0  0  0  0  0  0  0  0  0  0  0  0
    4.5525   -6.2946    0.0000 H   0  0  0  0  0  0  0  0  0  0  0  0
    6.5440   -5.9698    0.0000 H   0  0  0  0  0  0  0  0  0  0  0  0
    6.1737   -5.3285    0.0000 H   0  0  0  0  0  0  0  0  0  0  0  0
    4.8968   -6.8908    0.0000 H   0  0  0  0  0  0  0  0  0  0  0  0
    5.2670   -7.5321    0.0000 H   0  0  0  0  0  0  0  0  0  0  0  0
    7.2584   -7.2073    0.0000 H   0  0  0  0  0  0  0  0  0  0  0  0
    6.8882   -6.5660    0.0000 H   0  0  0  0  0  0  0  0  0  0  0  0
    5.7204   -8.4928    0.0000 H   0  0  0  0  0  0  0  0  0  0  0  0
    7.8638   -8.0803    0.0000 H   0  0  0  0  0  0  0  0  0  0  0  0
    7.6026  -10.0071    0.0000 H   0  0  0  0  0  0  0  0  0  0  0  0
    7.9729   -9.3658    0.0000 H   0  0  0  0  0  0  0  0  0  0  0  0
    5.9815   -9.0410    0.0000 H   0  0  0  0  0  0  0  0  0  0  0  0
    5.6112   -9.6823    0.0000 H   0  0  0  0  0  0  0  0  0  0  0  0
    6.8882  -11.2446    0.0000 H   0  0  0  0  0  0  0  0  0  0  0  0
    7.2584  -10.6033    0.0000 H   0  0  0  0  0  0  0  0  0  0  0  0
    5.2670  -10.2785    0.0000 H   0  0  0  0  0  0  0  0  0  0  0  0
    4.8968  -10.9198    0.0000 H   0  0  0  0  0  0  0  0  0  0  0  0
    6.1737  -12.4821    0.0000 H   0  0  0  0  0  0  0  0  0  0  0  0
    6.5440  -11.8408    0.0000 H   0  0  0  0  0  0  0  0  0  0  0  0
    4.5525  -11.5160    0.0000 H   0  0  0  0  0  0  0  0  0  0  0  0
    4.1823  -12.1573    0.0000 H   0  0  0  0  0  0  0  0  0  0  0  0
    5.4592  -13.7196    0.0000 H   0  0  0  0  0  0  0  0  0  0  0  0
    5.8295  -13.0783    0.0000 H   0  0  0  0  0  0  0  0  0  0  0  0
    3.8789  -12.7283    0.0000 H   0  0  0  0  0  0  0  0  0  0  0  0
    3.5769  -13.8553    0.0000 H   0  0  0  0  0  0  0  0  0  0  0  0
    4.7039  -14.1573    0.0000 H   0  0  0  0  0  0  0  0  0  0  0  0
    3.5976   -1.4423    0.0000 H   0  0  0  0  0  0  0  0  0  0  0  0
    2.3352    1.0187    0.0000 H   0  0  0  0  0  0  0  0  0  0  0  0
    1.7085    0.5634    0.0000 H   0  0  0  0  0  0  0  0  0  0  0  0
    4.0898    0.0727    0.0000 H   0  0  0  0  0  0  0  0  0  0  0  0
    3.8569    1.6885    0.0000 H   0  0  0  0  0  0  0  0  0  0  0  0
    2.7453   -0.3279    0.0000 H   0  0  0  0  0  0  0  0  0  0  0  0
    5.5034   -1.3388    0.0000 H   0  0  0  0  0  0  0  0  0  0  0  0
    6.2277   -1.1849    0.0000 H   0  0  0  0  0  0  0  0  0  0  0  0
    6.5342    0.8094    0.0000 H   0  0  0  0  0  0  0  0  0  0  0  0
    5.8099    0.6555    0.0000 H   0  0  0  0  0  0  0  0  0  0  0  0
    6.9011   -1.0417    0.0000 H   0  0  0  0  0  0  0  0  0  0  0  0
    7.6254   -0.8878    0.0000 H   0  0  0  0  0  0  0  0  0  0  0  0
    7.9319    1.1065    0.0000 H   0  0  0  0  0  0  0  0  0  0  0  0
    7.2076    0.9526    0.0000 H   0  0  0  0  0  0  0  0  0  0  0  0
    8.2988   -0.7446    0.0000 H   0  0  0  0  0  0  0  0  0  0  0  0
    9.0231   -0.5907    0.0000 H   0  0  0  0  0  0  0  0  0  0  0  0
    9.3297    1.4036    0.0000 H   0  0  0  0  0  0  0  0  0  0  0  0
    8.6053    1.2497    0.0000 H   0  0  0  0  0  0  0  0  0  0  0  0
    9.6965   -0.4475    0.0000 H   0  0  0  0  0  0  0  0  0  0  0  0
   10.4209   -0.2936    0.0000 H   0  0  0  0  0  0  0  0  0  0  0  0
   10.3470    1.7096    0.0000 H   0  0  0  0  0  0  0  0  0  0  0  0
   11.4746   -0.1593    0.0000 H   0  0  0  0  0  0  0  0  0  0  0  0
   12.5030    0.6197    0.0000 H   0  0  0  0  0  0  0  0  0  0  0  0
   12.7318    1.3240    0.0000 H   0  0  0  0  0  0  0  0  0  0  0  0
   11.1579    2.5866    0.0000 H   0  0  0  0  0  0  0  0  0  0  0  0
   10.9291    1.8824    0.0000 H   0  0  0  0  0  0  0  0  0  0  0  0
   12.9445    1.9787    0.0000 H   0  0  0  0  0  0  0  0  0  0  0  0
   13.1734    2.6830    0.0000 H   0  0  0  0  0  0  0  0  0  0  0  0
   11.5995    3.9456    0.0000 H   0  0  0  0  0  0  0  0  0  0  0  0
   11.3707    3.2414    0.0000 H   0  0  0  0  0  0  0  0  0  0  0  0
   13.3861    3.3377    0.0000 H   0  0  0  0  0  0  0  0  0  0  0  0
   13.6149    4.0420    0.0000 H   0  0  0  0  0  0  0  0  0  0  0  0
   12.0411    5.3046    0.0000 H   0  0  0  0  0  0  0  0  0  0  0  0
   11.8122    4.6004    0.0000 H   0  0  0  0  0  0  0  0  0  0  0  0
   13.8277    4.6968    0.0000 H   0  0  0  0  0  0  0  0  0  0  0  0
   14.0565    5.4010    0.0000 H   0  0  0  0  0  0  0  0  0  0  0  0
   13.8764    6.2552    0.0000 H   0  0  0  0  0  0  0  0  0  0  0  0
   12.8979    6.8907    0.0000 H   0  0  0  0  0  0  0  0  0  0  0  0
   12.2624    5.9122    0.0000 H   0  0  0  0  0  0  0  0  0  0  0  0
  1  2  1  0  0  0  0
  2  3  1  0  0  0  0
  3  4  1  0  0  0  0
  4  5  1  0  0  0  0
  5  6  1  0  0  0  0
  6  7  1  0  0  0  0
  7  8  1  0  0  0  0
  9  8  1  0  0  0  0
  9 10  2  0  0  0  0
 10 11  1  0  0  0  0
 11 12  1  0  0  0  0
 12 13  1  0  0  0  0
 13 14  1  0  0  0  0
 14 15  1  0  0  0  0
 15 16  1  0  0  0  0
 16 17  1  0  0  0  0
 17 18  1  0  0  0  0
 18 19  2  0  0  0  0
 18 20  1  0  0  0  0
 20 21  1  0  0  0  0
 21 22  1  0  0  0  0
 22 23  1  0  0  0  0
 23 24  1  0  0  0  0
 24 25  2  0  0  0  0
 24 26  1  0  0  0  0
 26 27  1  0  0  0  0
 27 28  1  0  0  0  0
 28 29  1  0  0  0  0
 29 30  1  0  0  0  0
 30 31  1  0  0  0  0
 31 32  1  0  0  0  0
 33 32  1  0  0  0  0
 33 34  2  0  0  0  0
 34 35  1  0  0  0  0
 35 36  1  0  0  0  0
 36 37  1  0  0  0  0
 37 38  1  0  0  0  0
 38 39  1  0  0  0  0
 39 40  1  0  0  0  0
 40 41  1  0  0  0  0
 41 42  1  0  0  0  0
 22 43  1  0  0  0  0
 43 44  1  0  0  0  0
 44 45  1  0  0  0  0
 45 46  1  0  0  0  0
 46 47  1  0  0  0  0
 46 48  1  0  0  0  0
 43 48  1  0  0  0  0
 48 49  1  0  0  0  0
 49 50  1  0  0  0  0
 50 51  2  0  0  0  0
 50 52  1  0  0  0  0
 52 53  1  0  0  0  0
 53 54  1  0  0  0  0
 54 55  1  0  0  0  0
 55 56  1  0  0  0  0
 56 57  1  0  0  0  0
 57 58  1  0  0  0  0
 59 58  1  0  0  0  0
 59 60  2  0  0  0  0
 60 61  1  0  0  0  0
 61 62  1  0  0  0  0
 62 63  1  0  0  0  0
 63 64  1  0  0  0  0
 64 65  1  0  0  0  0
 65 66  1  0  0  0  0
 66 67  1  0  0  0  0
 67 68  1  0  0  0  0
  1 69  1  0  0  0  0
  1 70  1  0  0  0  0
  1 71  1  0  0  0  0
  2 72  1  0  0  0  0
  2 73  1  0  0  0  0
  3 74  1  0  0  0  0
  3 75  1  0  0  0  0
  4 76  1  0  0  0  0
  4 77  1  0  0  0  0
  5 78  1  0  0  0  0
  5 79  1  0  0  0  0
  6 80  1  0  0  0  0
  6 81  1  0  0  0  0
  7 82  1  0  0  0  0
  7 83  1  0  0  0  0
  8 84  1  0  0  0  0
  8 85  1  0  0  0  0
  9 86  1  4  0  0  0
 10 87  1  0  0  0  0
 11 88  1  0  0  0  0
 11 89  1  0  0  0  0
 12 90  1  0  0  0  0
 12 91  1  0  0  0  0
 13 92  1  0  0  0  0
 13 93  1  0  0  0  0
 14 94  1  0  0  0  0
 14 95  1  0  0  0  0
 15 96  1  0  0  0  0
 15 97  1  0  0  0  0
 16 98  1  0  0  0  0
 16 99  1  0  0  0  0
 17100  1  0  0  0  0
 17101  1  0  0  0  0
 21102  1  0  0  0  0
 21103  1  0  0  0  0
 22104  1  0  0  0  0
 26105  1  0  0  0  0
 26106  1  0  0  0  0
 27107  1  0  0  0  0
 27108  1  0  0  0  0
 28109  1  0  0  0  0
 28110  1  0  0  0  0
 29111  1  0  0  0  0
 29112  1  0  0  0  0
 30113  1  0  0  0  0
 30114  1  0  0  0  0
 31115  1  0  0  0  0
 31116  1  0  0  0  0
 32117  1  0  0  0  0
 32118  1  0  0  0  0
 33119  1  4  0  0  0
 34120  1  0  0  0  0
 35121  1  0  0  0  0
 35122  1  0  0  0  0
 36123  1  0  0  0  0
 36124  1  0  0  0  0
 37125  1  0  0  0  0
 37126  1  0  0  0  0
 38127  1  0  0  0  0
 38128  1  0  0  0  0
 39129  1  0  0  0  0
 39130  1  0  0  0  0
 40131  1  0  0  0  0
 40132  1  0  0  0  0
 41133  1  0  0  0  0
 41134  1  0  0  0  0
 42135  1  0  0  0  0
 42136  1  0  0  0  0
 42137  1  0  0  0  0
 43138  1  0  0  0  0
 45139  1  0  0  0  0
 45140  1  0  0  0  0
 46141  1  0  0  0  0
 47142  1  0  0  0  0
 48143  1  0  0  0  0
 52144  1  0  0  0  0
 52145  1  0  0  0  0
 53146  1  0  0  0  0
 53147  1  0  0  0  0
 54148  1  0  0  0  0
 54149  1  0  0  0  0
 55150  1  0  0  0  0
 55151  1  0  0  0  0
 56152  1  0  0  0  0
 56153  1  0  0  0  0
 57154  1  0  0  0  0
 57155  1  0  0  0  0
 58156  1  0  0  0  0
 58157  1  0  0  0  0
 59158  1  4  0  0  0
 60159  1  0  0  0  0
 61160  1  0  0  0  0
 61161  1  0  0  0  0
 62162  1  0  0  0  0
 62163  1  0  0  0  0
 63164  1  0  0  0  0
 63165  1  0  0  0  0
 64166  1  0  0  0  0
 64167  1  0  0  0  0
 65168  1  0  0  0  0
 65169  1  0  0  0  0
 66170  1  0  0  0  0
 66171  1  0  0  0  0
 67172  1  0  0  0  0
 67173  1  0  0  0  0
 68174  1  0  0  0  0
 68175  1  0  0  0  0
 68176  1  0  0  0  0
M  END
> <id>
2596

> <casrn>
26266-58-0

> <smiles (First)>


> <Molecular weight>
957.4947509765625

> <name>
anhydro-D-glucitol trioleate

> <Outcome>
0

> <Molecule (RDKit Mol) (InChI Code)>
InChI=1S/C60H108O8/c1-4-7-10-13-16-19-22-25-28-31-34-37-40-43-46-49-56(62)65-53-55(67-57(63)50-47-44-41-38-35-32-29-26-23-20-17-14-11-8-5-2)60-59(54(61)52-66-60)68-58(64)51-48-45-42-39-36-33-30-27-24-21-18-15-12-9-6-3/h25-30,54-55,59-61H,4-24,31-53H2,1-3H3

> <reference>
ECHA

> <molecule_form>
A

$$$$

  Mrv1812 01171911372D          

 12 11  0  0  0  0            999 V2000
    0.1080   -2.0611    0.0000 O   0  0  0  0  0  0  0  0  0  0  0  0
    0.8224   -1.6486    0.0000 C   0  0  0  0  0  0  0  0  0  0  0  0
    0.8224   -0.8236    0.0000 C   0  0  0  0  0  0  0  0  0  0  0  0
    1.6474   -0.8236    0.0000 F   0  0  0  0  0  0  0  0  0  0  0  0
   -0.0026   -0.8236    0.0000 F   0  0  0  0  0  0  0  0  0  0  0  0
    0.8224    0.0014    0.0000 C   0  0  0  0  0  0  0  0  0  0  0  0
    0.8224    0.8264    0.0000 F   0  0  0  0  0  0  0  0  0  0  0  0
    1.6474    0.0014    0.0000 F   0  0  0  0  0  0  0  0  0  0  0  0
   -0.0026    0.0014    0.0000 F   0  0  0  0  0  0  0  0  0  0  0  0
   -0.6065   -1.6486    0.0000 H   0  0  0  0  0  0  0  0  0  0  0  0
    1.2758   -2.3378    0.0000 H   0  0  0  0  0  0  0  0  0  0  0  0
    1.6460   -1.6965    0.0000 H   0  0  0  0  0  0  0  0  0  0  0  0
  1  2  1  0  0  0  0
  2  3  1  0  0  0  0
  3  4  1  0  0  0  0
  3  5  1  0  0  0  0
  3  6  1  0  0  0  0
  6  7  1  0  0  0  0
  6  8  1  0  0  0  0
  6  9  1  0  0  0  0
  1 10  1  0  0  0  0
  2 11  1  0  0  0  0
  2 12  1  0  0  0  0
M  END
> <id>
1242

> <casrn>
422-05-9

> <smiles (First)>


> <Molecular weight>
150.04733276367188

> <name>
2,2,3,3,3-pentafluoropropan-1-ol

> <Outcome>
0

> <Molecule (RDKit Mol) (InChI Code)>
InChI=1S/C3H3F5O/c4-2(5,1-9)3(6,7)8/h9H,1H2

> <reference>
ECHA

> <molecule_form>
V

$$$$

  Mrv1812 01171911372D          

 30 29  0  0  0  0            999 V2000
   -0.3944    1.7901    0.0000 C   0  0  0  0  0  0  0  0  0  0  0  0
    0.3201    1.3776    0.0000 C   0  0  0  0  0  0  0  0  0  0  0  0
    0.3201    0.5526    0.0000 C   0  0  0  0  0  0  0  0  0  0  0  0
    1.0346    0.1401    0.0000 C   0  0  0  0  0  0  0  0  0  0  0  0
    1.7491    0.5526    0.0000 O   0  0  0  0  0  0  0  0  0  0  0  0
    1.0346   -0.6849    0.0000 O   0  0  0  0  0  0  0  0  0  0  0  0
    1.7491   -1.0974    0.0000 C   0  0  0  0  0  0  0  0  0  0  0  0
    1.7491   -1.9224    0.0000 C   0  0  0  0  0  0  0  0  0  0  0  0
    2.4635   -2.3349    0.0000 C   0  0  0  0  0  0  0  0  0  0  0  0
    2.4635   -0.6849    0.0000 C   0  0  0  0  0  0  0  0  0  0  0  0
    2.4635    0.1401    0.0000 C   0  0  0  0  0  0  0  0  0  0  0  0
    3.1780   -1.0974    0.0000 C   0  0  0  0  0  0  0  0  0  0  0  0
    0.0181    2.5046    0.0000 H   0  0  0  0  0  0  0  0  0  0  0  0
   -1.1088    2.2026    0.0000 H   0  0  0  0  0  0  0  0  0  0  0  0
   -0.8069    1.0756    0.0000 H   0  0  0  0  0  0  0  0  0  0  0  0
    1.0346    1.7901    0.0000 H   0  0  0  0  0  0  0  0  0  0  0  0
   -0.3944    0.1401    0.0000 H   0  0  0  0  0  0  0  0  0  0  0  0
    1.0346   -1.5099    0.0000 H   0  0  0  0  0  0  0  0  0  0  0  0
    1.1171   -2.4527    0.0000 H   0  0  0  0  0  0  0  0  0  0  0  0
    1.6058   -2.7349    0.0000 H   0  0  0  0  0  0  0  0  0  0  0  0
    2.6245   -3.1441    0.0000 H   0  0  0  0  0  0  0  0  0  0  0  0
    3.2877   -2.3709    0.0000 H   0  0  0  0  0  0  0  0  0  0  0  0
    2.6944   -1.5429    0.0000 H   0  0  0  0  0  0  0  0  0  0  0  0
    1.7491   -0.2724    0.0000 H   0  0  0  0  0  0  0  0  0  0  0  0
    3.1780   -0.2724    0.0000 H   0  0  0  0  0  0  0  0  0  0  0  0
    3.1780    0.5526    0.0000 H   0  0  0  0  0  0  0  0  0  0  0  0
    2.4635    0.9651    0.0000 H   0  0  0  0  0  0  0  0  0  0  0  0
    3.3140   -1.9111    0.0000 H   0  0  0  0  0  0  0  0  0  0  0  0
    3.9336   -1.4287    0.0000 H   0  0  0  0  0  0  0  0  0  0  0  0
    3.8686   -0.6461    0.0000 H   0  0  0  0  0  0  0  0  0  0  0  0
  2  1  1  4  0  0  0
  2  3  2  0  0  0  0
  3  4  1  0  0  0  0
  4  5  2  0  0  0  0
  4  6  1  0  0  0  0
  6  7  1  0  0  0  0
  7  8  1  0  0  0  0
  8  9  1  0  0  0  0
  7 10  1  0  0  0  0
 10 11  1  0  0  0  0
 10 12  1  0  0  0  0
  1 13  1  0  0  0  0
  1 14  1  0  0  0  0
  1 15  1  0  0  0  0
  2 16  1  0  0  0  0
  3 17  1  0  0  0  0
  7 18  1  0  0  0  0
  8 19  1  0  0  0  0
  8 20  1  0  0  0  0
  9 21  1  0  0  0  0
  9 22  1  0  0  0  0
  9 23  1  0  0  0  0
 10 24  1  0  0  0  0
 11 25  1  0  0  0  0
 11 26  1  0  0  0  0
 11 27  1  0  0  0  0
 12 28  1  0  0  0  0
 12 29  1  0  0  0  0
 12 30  1  0  0  0  0
M  END
> <id>
493

> <casrn>
1370711-06-0

> <smiles (First)>


> <Molecular weight>
170.24871826171875

> <name>
-

> <Outcome>
0

> <Molecule (RDKit Mol) (InChI Code)>
InChI=1S/C10H18O2/c1-5-7-10(11)12-9(6-2)8(3)4/h5,7-9H,6H2,1-4H3

> <reference>
ECHA

> <molecule_form>
A

$$$$

  Mrv1812 01171911372D          

 18 18  0  0  0  0            999 V2000
    0.0086    2.5852    0.0000 N   0  0  0  0  0  0  0  0  0  0  0  0
    0.7231    2.1727    0.0000 C   0  0  0  0  0  0  0  0  0  0  0  0
    1.4375    2.5852    0.0000 O   0  0  0  0  0  0  0  0  0  0  0  0
    0.7231    1.3477    0.0000 C   0  0  0  0  0  0  0  0  0  0  0  0
    1.4375    0.9352    0.0000 C   0  0  0  0  0  0  0  0  0  0  0  0
    1.4375    0.1102    0.0000 C   0  0  0  0  0  0  0  0  0  0  0  0
    0.7231   -0.3023    0.0000 C   0  0  0  0  0  0  0  0  0  0  0  0
    0.0086    0.1102    0.0000 C   0  0  0  0  0  0  0  0  0  0  0  0
    0.0086    0.9352    0.0000 C   0  0  0  0  0  0  0  0  0  0  0  0
   -0.7059    1.3477    0.0000 N   0  0  0  0  0  0  0  0  0  0  0  0
    0.0086    3.4102    0.0000 H   0  0  0  0  0  0  0  0  0  0  0  0
   -0.7059    2.1727    0.0000 H   0  0  0  0  0  0  0  0  0  0  0  0
    2.1520    1.3477    0.0000 H   0  0  0  0  0  0  0  0  0  0  0  0
    2.1520   -0.3023    0.0000 H   0  0  0  0  0  0  0  0  0  0  0  0
    0.7231   -1.1273    0.0000 H   0  0  0  0  0  0  0  0  0  0  0  0
   -0.7059   -0.3023    0.0000 H   0  0  0  0  0  0  0  0  0  0  0  0
   -1.5295    1.2997    0.0000 H   0  0  0  0  0  0  0  0  0  0  0  0
   -1.1592    0.6584    0.0000 H   0  0  0  0  0  0  0  0  0  0  0  0
  1  2  1  0  0  0  0
  2  3  2  0  0  0  0
  2  4  1  0  0  0  0
  4  5  4  0  0  0  0
  5  6  4  0  0  0  0
  6  7  4  0  0  0  0
  7  8  4  0  0  0  0
  8  9  4  0  0  0  0
  4  9  4  0  0  0  0
  9 10  1  0  0  0  0
  1 11  1  0  0  0  0
  1 12  1  0  0  0  0
  5 13  1  0  0  0  0
  6 14  1  0  0  0  0
  7 15  1  0  0  0  0
  8 16  1  0  0  0  0
 10 17  1  0  0  0  0
 10 18  1  0  0  0  0
M  END
> <id>
1415; 1416

> <casrn>
88-68-6

> <smiles (First)>


> <Molecular weight>
136.15121459960938

> <name>
2-aminobenzamide

> <Outcome>
0

> <Molecule (RDKit Mol) (InChI Code)>
InChI=1S/C7H8N2O/c8-6-4-2-1-3-5(6)7(9)10/h1-4H,8H2,(H2,9,10)

> <reference>
ECHA

> <molecule_form>
A

$$$$

  Mrv1812 01171911372D          

 16 15  0  0  0  0            999 V2000
    2.4172    0.0862    0.0000 C   0  0  0  0  0  0  0  0  0  0  0  0
    2.0047    0.8007    0.0000 O   0  0  0  0  0  0  0  0  0  0  0  0
    1.1797    0.8007    0.0000 Si  0  0  0  0  0  0  0  0  0  0  0  0
    0.7672    1.5151    0.0000 O   0  0  0  0  0  0  0  0  0  0  0  0
   -0.0578    1.5151    0.0000 C   0  0  0  0  0  0  0  0  0  0  0  0
    0.7672    0.0862    0.0000 O   0  0  0  0  0  0  0  0  0  0  0  0
   -0.0578    0.0862    0.0000 C   0  0  0  0  0  0  0  0  0  0  0  0
    1.7027   -0.3263    0.0000 H   0  0  0  0  0  0  0  0  0  0  0  0
    2.8297   -0.6283    0.0000 H   0  0  0  0  0  0  0  0  0  0  0  0
    3.1317    0.4987    0.0000 H   0  0  0  0  0  0  0  0  0  0  0  0
   -0.0578    2.3401    0.0000 H   0  0  0  0  0  0  0  0  0  0  0  0
   -0.8828    1.5151    0.0000 H   0  0  0  0  0  0  0  0  0  0  0  0
   -0.0578    0.6901    0.0000 H   0  0  0  0  0  0  0  0  0  0  0  0
   -0.8200    0.4019    0.0000 H   0  0  0  0  0  0  0  0  0  0  0  0
   -0.6412   -0.4972    0.0000 H   0  0  0  0  0  0  0  0  0  0  0  0
    0.2579   -0.6760    0.0000 H   0  0  0  0  0  0  0  0  0  0  0  0
  1  2  1  0  0  0  0
  2  3  1  0  0  0  0
  3  4  1  0  0  0  0
  4  5  1  0  0  0  0
  3  6  1  0  0  0  0
  6  7  1  0  0  0  0
  1  8  1  0  0  0  0
  1  9  1  0  0  0  0
  1 10  1  0  0  0  0
  5 11  1  0  0  0  0
  5 12  1  0  0  0  0
  5 13  1  0  0  0  0
  7 14  1  0  0  0  0
  7 15  1  0  0  0  0
  7 16  1  0  0  0  0
M  RAD  1   3   2
M  END
> <id>
4093

> <casrn>
2487-90-3

> <smiles (First)>


> <Molecular weight>
121.18726348876953

> <name>
trimethoxysilane

> <Outcome>
1

> <Molecule (RDKit Mol) (InChI Code)>
InChI=1S/C3H9O3Si/c1-4-7(5-2)6-3/h1-3H3

> <reference>
ECHA

> <molecule_form>
V

$$$$

  Mrv1812 01171911372D          

 11 10  0  0  0  0            999 V2000
    2.4734   -1.4317    0.0000 C   0  0  0  0  0  0  0  0  0  0  0  0
    2.0609   -0.7172    0.0000 O   0  0  0  0  0  0  0  0  0  0  0  0
    1.2359   -0.7172    0.0000 C   0  0  0  0  0  0  0  0  0  0  0  0
    0.8234   -1.4317    0.0000 O   0  0  0  0  0  0  0  0  0  0  0  0
    0.8234   -0.0028    0.0000 C   0  0  0  0  0  0  0  0  0  0  0  0
   -0.0016   -0.0028    0.0000 Cl  0  0  0  0  0  0  0  0  0  0  0  0
    1.7589   -1.8442    0.0000 H   0  0  0  0  0  0  0  0  0  0  0  0
    2.8859   -2.1462    0.0000 H   0  0  0  0  0  0  0  0  0  0  0  0
    3.1879   -1.0192    0.0000 H   0  0  0  0  0  0  0  0  0  0  0  0
    1.5127    0.4506    0.0000 H   0  0  0  0  0  0  0  0  0  0  0  0
    0.8714    0.8208    0.0000 H   0  0  0  0  0  0  0  0  0  0  0  0
  1  2  1  0  0  0  0
  2  3  1  0  0  0  0
  3  4  2  0  0  0  0
  3  5  1  0  0  0  0
  5  6  1  0  0  0  0
  1  7  1  0  0  0  0
  1  8  1  0  0  0  0
  1  9  1  0  0  0  0
  5 10  1  0  0  0  0
  5 11  1  0  0  0  0
M  END
> <id>
3447

> <casrn>
96-34-4

> <smiles (First)>


> <Molecular weight>
108.52359771728516

> <name>
methyl 2-chloroacetate

> <Outcome>
1

> <Molecule (RDKit Mol) (InChI Code)>
InChI=1S/C3H5ClO2/c1-6-3(5)2-4/h2H2,1H3

> <reference>
ECHA

> <molecule_form>
V

$$$$

  Mrv1812 01171911372D          

  8  7  0  0  0  0            999 V2000
    0.8250   -0.8250    0.0000 C   0  0  0  0  0  0  0  0  0  0  0  0
    0.8250    0.0000    0.0000 S   0  0  0  0  0  0  0  0  0  0  0  0
    0.8250    0.8250    0.0000 O   0  0  0  0  0  0  0  0  0  0  0  0
    1.6500   -0.0000    0.0000 O   0  0  0  0  0  0  0  0  0  0  0  0
    0.0000    0.0000    0.0000 Cl  0  0  0  0  0  0  0  0  0  0  0  0
    0.0000   -0.8250    0.0000 H   0  0  0  0  0  0  0  0  0  0  0  0
    0.8250   -1.6500    0.0000 H   0  0  0  0  0  0  0  0  0  0  0  0
    1.6500   -0.8250    0.0000 H   0  0  0  0  0  0  0  0  0  0  0  0
  1  2  1  0  0  0  0
  2  3  2  0  0  0  0
  2  4  2  0  0  0  0
  2  5  1  0  0  0  0
  1  6  1  0  0  0  0
  1  7  1  0  0  0  0
  1  8  1  0  0  0  0
M  END
> <id>
3428

> <casrn>
124-63-0

> <smiles (First)>


> <Molecular weight>
114.55131530761719

> <name>
methanesulfonyl chloride

> <Outcome>
1

> <Molecule (RDKit Mol) (InChI Code)>
InChI=1S/CH3ClO2S/c1-5(2,3)4/h1H3

> <reference>
ECHA

> <molecule_form>
V

$$$$

  Mrv1812 01171911372D          

 12 12  0  0  0  0            999 V2000
    0.7145    2.0625    0.0000 Br  0  0  0  0  0  0  0  0  0  0  0  0
    0.7145    1.2375    0.0000 C   0  0  0  0  0  0  0  0  0  0  0  0
    1.4289    0.8250    0.0000 C   0  0  0  0  0  0  0  0  0  0  0  0
    1.4289    0.0000    0.0000 C   0  0  0  0  0  0  0  0  0  0  0  0
    0.7145   -0.4125    0.0000 C   0  0  0  0  0  0  0  0  0  0  0  0
   -0.0000    0.0000    0.0000 C   0  0  0  0  0  0  0  0  0  0  0  0
   -0.0000    0.8250    0.0000 C   0  0  0  0  0  0  0  0  0  0  0  0
    2.1434    1.2375    0.0000 H   0  0  0  0  0  0  0  0  0  0  0  0
    2.1434   -0.4125    0.0000 H   0  0  0  0  0  0  0  0  0  0  0  0
    0.7145   -1.2375    0.0000 H   0  0  0  0  0  0  0  0  0  0  0  0
   -0.7145   -0.4125    0.0000 H   0  0  0  0  0  0  0  0  0  0  0  0
   -0.7145    1.2375    0.0000 H   0  0  0  0  0  0  0  0  0  0  0  0
  1  2  1  0  0  0  0
  2  3  4  0  0  0  0
  3  4  4  0  0  0  0
  4  5  4  0  0  0  0
  5  6  4  0  0  0  0
  6  7  4  0  0  0  0
  2  7  4  0  0  0  0
  3  8  1  0  0  0  0
  4  9  1  0  0  0  0
  5 10  1  0  0  0  0
  6 11  1  0  0  0  0
  7 12  1  0  0  0  0
M  END
> <id>
2686

> <casrn>
108-86-1

> <smiles (First)>


> <Molecular weight>
157.00790405273438

> <name>
bromobenzene

> <Outcome>
0

> <Molecule (RDKit Mol) (InChI Code)>
InChI=1S/C6H5Br/c7-6-4-2-1-3-5-6/h1-5H

> <reference>
ECHA

> <molecule_form>
V

$$$$

  Mrv1812 01171911372D          

 15 16  0  0  0  0            999 V2000
    0.8838   -2.1500    0.0000 O   0  0  0  0  0  0  0  0  0  0  0  0
    1.1387   -1.3654    0.0000 C   0  0  0  0  0  0  0  0  0  0  0  0
    0.6538   -0.6979    0.0000 O   0  0  0  0  0  0  0  0  0  0  0  0
    1.1387   -0.0305    0.0000 C   0  0  0  0  0  0  0  0  0  0  0  0
    0.8838    0.7541    0.0000 O   0  0  0  0  0  0  0  0  0  0  0  0
    1.9233   -0.2854    0.0000 C   0  0  0  0  0  0  0  0  0  0  0  0
    2.6378    0.1271    0.0000 C   0  0  0  0  0  0  0  0  0  0  0  0
    2.6378    0.9521    0.0000 Br  0  0  0  0  0  0  0  0  0  0  0  0
    3.3523   -0.2854    0.0000 C   0  0  0  0  0  0  0  0  0  0  0  0
    4.0668    0.1271    0.0000 Br  0  0  0  0  0  0  0  0  0  0  0  0
    3.3523   -1.1104    0.0000 C   0  0  0  0  0  0  0  0  0  0  0  0
    4.0668   -1.5229    0.0000 Br  0  0  0  0  0  0  0  0  0  0  0  0
    2.6378   -1.5229    0.0000 C   0  0  0  0  0  0  0  0  0  0  0  0
    2.6378   -2.3479    0.0000 Br  0  0  0  0  0  0  0  0  0  0  0  0
    1.9233   -1.1104    0.0000 C   0  0  0  0  0  0  0  0  0  0  0  0
  1  2  2  0  0  0  0
  2  3  1  0  0  0  0
  3  4  1  0  0  0  0
  4  5  2  0  0  0  0
  4  6  1  0  0  0  0
  6  7  4  0  0  0  0
  7  8  1  0  0  0  0
  7  9  4  0  0  0  0
  9 10  1  0  0  0  0
  9 11  4  0  0  0  0
 11 12  1  0  0  0  0
 11 13  4  0  0  0  0
 13 14  1  0  0  0  0
 13 15  4  0  0  0  0
  6 15  4  0  0  0  0
  2 15  1  0  0  0  0
M  END
> <id>
3926

> <casrn>
632-79-1

> <smiles (First)>


> <Molecular weight>
463.6997985839844

> <name>
tetrabromo-1,3-dihydro-2-benzofuran-1,3-dione

> <Outcome>
0

> <Molecule (RDKit Mol) (InChI Code)>
InChI=1S/C8Br4O3/c9-3-1-2(8(14)15-7(1)13)4(10)6(12)5(3)11

> <reference>
ECHA

> <molecule_form>
A

$$$$

  Mrv1812 01171911372D          

 27 28  0  0  0  0            999 V2000
    2.2404   -2.7112    0.0000 N   0  0  0  0  0  0  0  0  0  0  0  0
    1.4334   -2.8827    0.0000 C   0  0  0  0  0  0  0  0  0  0  0  0
    0.8814   -2.2696    0.0000 C   0  0  0  0  0  0  0  0  0  0  0  0
    1.1363   -1.4850    0.0000 C   0  0  0  0  0  0  0  0  0  0  0  0
    0.6514   -0.8175    0.0000 C   0  0  0  0  0  0  0  0  0  0  0  0
    1.1363   -0.1501    0.0000 N   0  0  0  0  0  0  0  0  0  0  0  0
    1.9209   -0.4050    0.0000 C   0  0  0  0  0  0  0  0  0  0  0  0
    2.6354    0.0075    0.0000 C   0  0  0  0  0  0  0  0  0  0  0  0
    3.3499   -0.4050    0.0000 C   0  0  0  0  0  0  0  0  0  0  0  0
    3.3499   -1.2300    0.0000 C   0  0  0  0  0  0  0  0  0  0  0  0
    2.6354   -1.6425    0.0000 C   0  0  0  0  0  0  0  0  0  0  0  0
    1.9209   -1.2300    0.0000 C   0  0  0  0  0  0  0  0  0  0  0  0
    1.1785   -3.6673    0.0000 C   0  0  0  0  0  0  0  0  0  0  0  0
    1.7305   -4.2804    0.0000 O   0  0  0  0  0  0  0  0  0  0  0  0
    0.3715   -3.8388    0.0000 O   0  0  0  0  0  0  0  0  0  0  0  0
    2.7924   -3.3242    0.0000 H   0  0  0  0  0  0  0  0  0  0  0  0
    2.4953   -1.9265    0.0000 H   0  0  0  0  0  0  0  0  0  0  0  0
    1.6883   -2.0981    0.0000 H   0  0  0  0  0  0  0  0  0  0  0  0
    0.0832   -2.0607    0.0000 H   0  0  0  0  0  0  0  0  0  0  0  0
    0.2372   -2.7850    0.0000 H   0  0  0  0  0  0  0  0  0  0  0  0
   -0.1736   -0.8175    0.0000 H   0  0  0  0  0  0  0  0  0  0  0  0
    0.8814    0.6345    0.0000 H   0  0  0  0  0  0  0  0  0  0  0  0
    2.6354    0.8325    0.0000 H   0  0  0  0  0  0  0  0  0  0  0  0
    4.0643    0.0075    0.0000 H   0  0  0  0  0  0  0  0  0  0  0  0
    4.0643   -1.6425    0.0000 H   0  0  0  0  0  0  0  0  0  0  0  0
    3.2375   -2.2065    0.0000 H   0  0  0  0  0  0  0  0  0  0  0  0
   -0.1805   -3.2257    0.0000 H   0  0  0  0  0  0  0  0  0  0  0  0
  1  2  1  0  0  0  0
  2  3  1  0  0  0  0
  3  4  1  0  0  0  0
  4  5  4  0  0  0  0
  5  6  4  0  0  0  0
  6  7  4  0  0  0  0
  7  8  4  0  0  0  0
  8  9  4  0  0  0  0
  9 10  4  0  0  0  0
 10 11  4  0  0  0  0
 11 12  4  0  0  0  0
  4 12  4  0  0  0  0
  7 12  4  0  0  0  0
  2 13  1  0  0  0  0
 13 14  2  0  0  0  0
 13 15  1  0  0  0  0
  1 16  1  0  0  0  0
  1 17  1  0  0  0  0
  2 18  1  0  0  0  0
  3 19  1  0  0  0  0
  3 20  1  0  0  0  0
  5 21  1  0  0  0  0
  6 22  1  0  0  0  0
  8 23  1  0  0  0  0
  9 24  1  0  0  0  0
 10 25  1  0  0  0  0
 11 26  1  0  0  0  0
 15 27  1  0  0  0  0
M  END
> <id>
179; 178

> <casrn>
73-22-3

> <smiles (First)>


> <Molecular weight>
204.22518920898438

> <name>
(2S)-2-amino-3-(1H-indol-3-yl)propanoic acid

> <Outcome>
0

> <Molecule (RDKit Mol) (InChI Code)>
InChI=1S/C11H12N2O2/c12-9(11(14)15)5-7-6-13-10-4-2-1-3-8(7)10/h1-4,6,9,13H,5,12H2,(H,14,15)

> <reference>
ECHA

> <molecule_form>
A

$$$$

  Mrv1812 01171911372D          

  9  8  0  0  0  0            999 V2000
    0.1105   -1.2375    0.0000 C   0  0  0  0  0  0  0  0  0  0  0  0
    0.8250   -0.8250    0.0000 C   0  0  0  0  0  0  0  0  0  0  0  0
    1.5395   -1.2375    0.0000 Br  0  0  0  0  0  0  0  0  0  0  0  0
    0.8250    0.0000    0.0000 C   0  0  0  0  0  0  0  0  0  0  0  0
    0.8250    0.8250    0.0000 F   0  0  0  0  0  0  0  0  0  0  0  0
    1.6500    0.0000    0.0000 F   0  0  0  0  0  0  0  0  0  0  0  0
   -0.0000    0.0000    0.0000 F   0  0  0  0  0  0  0  0  0  0  0  0
   -0.6039   -0.8250    0.0000 H   0  0  0  0  0  0  0  0  0  0  0  0
    0.1105   -2.0625    0.0000 H   0  0  0  0  0  0  0  0  0  0  0  0
  1  2  2  0  0  0  0
  2  3  1  0  0  0  0
  2  4  1  0  0  0  0
  4  5  1  0  0  0  0
  4  6  1  0  0  0  0
  4  7  1  0  0  0  0
  1  8  1  0  0  0  0
  1  9  1  0  0  0  0
M  END
> <id>
1419

> <casrn>
1514-82-5

> <smiles (First)>


> <Molecular weight>
174.9471893310547

> <name>
2-bromo-3,3,3-trifluoroprop-1-ene

> <Outcome>
0

> <Molecule (RDKit Mol) (InChI Code)>
InChI=1S/C3H2BrF3/c1-2(4)3(5,6)7/h1H2

> <reference>
ECHA

> <molecule_form>
V

$$$$

  Mrv1812 01171911372D          

 12 11  0  0  0  0            999 V2000
    1.5395   -1.2375    0.0000 C   0  0  0  0  0  0  0  0  0  0  0  0
    0.8250   -0.8250    0.0000 C   0  0  0  0  0  0  0  0  0  0  0  0
    0.1105   -1.2375    0.0000 C   0  0  0  0  0  0  0  0  0  0  0  0
   -0.6039   -1.6500    0.0000 F   0  0  0  0  0  0  0  0  0  0  0  0
    0.5230   -1.9520    0.0000 F   0  0  0  0  0  0  0  0  0  0  0  0
   -0.3020   -0.5230    0.0000 F   0  0  0  0  0  0  0  0  0  0  0  0
    0.8250    0.0000    0.0000 C   0  0  0  0  0  0  0  0  0  0  0  0
    0.8250    0.8250    0.0000 F   0  0  0  0  0  0  0  0  0  0  0  0
    1.6500    0.0000    0.0000 F   0  0  0  0  0  0  0  0  0  0  0  0
    0.0000    0.0000    0.0000 F   0  0  0  0  0  0  0  0  0  0  0  0
    1.5395   -2.0625    0.0000 H   0  0  0  0  0  0  0  0  0  0  0  0
    2.2539   -0.8250    0.0000 H   0  0  0  0  0  0  0  0  0  0  0  0
  1  2  2  0  0  0  0
  2  3  1  0  0  0  0
  3  4  1  0  0  0  0
  3  5  1  0  0  0  0
  3  6  1  0  0  0  0
  2  7  1  0  0  0  0
  7  8  1  0  0  0  0
  7  9  1  0  0  0  0
  7 10  1  0  0  0  0
  1 11  1  0  0  0  0
  1 12  1  0  0  0  0
M  END
> <id>
1715

> <casrn>
382-10-5

> <smiles (First)>


> <Molecular weight>
164.04910278320312

> <name>
3,3,3-trifluoro-2-(trifluoromethyl)prop-1-ene

> <Outcome>
1

> <Molecule (RDKit Mol) (InChI Code)>
InChI=1S/C4H2F6/c1-2(3(5,6)7)4(8,9)10/h1H2

> <reference>
ECHA

> <molecule_form>
G

$$$$

  Mrv1812 01171911372D          

  9  8  0  0  0  0            999 V2000
    2.5936   -0.9862    0.0000 C   0  0  0  0  0  0  0  0  0  0  0  0
    2.1811   -0.2717    0.0000 S   0  0  0  0  0  0  0  0  0  0  0  0
    1.3561   -0.2717    0.0000 C   0  0  0  0  0  0  0  0  0  0  0  0
    1.8791   -1.3987    0.0000 H   0  0  0  0  0  0  0  0  0  0  0  0
    3.0061   -1.7007    0.0000 H   0  0  0  0  0  0  0  0  0  0  0  0
    3.3081   -0.5737    0.0000 H   0  0  0  0  0  0  0  0  0  0  0  0
    1.3561    0.5533    0.0000 H   0  0  0  0  0  0  0  0  0  0  0  0
    0.5311   -0.2717    0.0000 H   0  0  0  0  0  0  0  0  0  0  0  0
    1.3561   -1.0967    0.0000 H   0  0  0  0  0  0  0  0  0  0  0  0
  1  2  1  0  0  0  0
  2  3  1  0  0  0  0
  1  4  1  0  0  0  0
  1  5  1  0  0  0  0
  1  6  1  0  0  0  0
  3  7  1  0  0  0  0
  3  8  1  0  0  0  0
  3  9  1  0  0  0  0
M  END
> <id>
225

> <casrn>
75-18-3

> <smiles (First)>


> <Molecular weight>
62.13404083251953

> <name>
(methylsulfanyl)methane

> <Outcome>
0

> <Molecule (RDKit Mol) (InChI Code)>
InChI=1S/C2H6S/c1-3-2/h1-2H3

> <reference>
ECHA

> <molecule_form>
V

$$$$

  Mrv1812 01171911372D          

 47 49  0  0  0  0            999 V2000
   -1.8179   -2.0142    0.0000 C   0  0  0  0  0  0  0  0  0  0  0  0
   -1.4054   -1.2997    0.0000 N   0  3  0  0  0  0  0  0  0  0  0  0
   -0.5804   -1.2997    0.0000 N   0  0  0  0  0  0  0  0  0  0  0  0
   -0.1679   -0.5852    0.0000 C   0  0  0  0  0  0  0  0  0  0  0  0
    0.6571   -0.5852    0.0000 C   0  0  0  0  0  0  0  0  0  0  0  0
    1.1420    0.0822    0.0000 N   0  0  0  0  0  0  0  0  0  0  0  0
    0.8870    0.8668    0.0000 C   0  0  0  0  0  0  0  0  0  0  0  0
    1.9266   -0.1727    0.0000 C   0  0  0  0  0  0  0  0  0  0  0  0
    2.6411    0.2398    0.0000 C   0  0  0  0  0  0  0  0  0  0  0  0
    3.3556   -0.1727    0.0000 C   0  0  0  0  0  0  0  0  0  0  0  0
    3.3556   -0.9977    0.0000 C   0  0  0  0  0  0  0  0  0  0  0  0
    2.6411   -1.4102    0.0000 C   0  0  0  0  0  0  0  0  0  0  0  0
    1.9266   -0.9977    0.0000 C   0  0  0  0  0  0  0  0  0  0  0  0
    1.1420   -1.2527    0.0000 C   0  0  0  0  0  0  0  0  0  0  0  0
    1.3051   -2.0614    0.0000 C   0  0  0  0  0  0  0  0  0  0  0  0
    0.5347   -1.8111    0.0000 C   0  0  0  0  0  0  0  0  0  0  0  0
   -1.8179   -0.5852    0.0000 C   0  0  0  0  0  0  0  0  0  0  0  0
   -2.6429   -0.5852    0.0000 C   0  0  0  0  0  0  0  0  0  0  0  0
   -3.0554    0.1292    0.0000 C   0  0  0  0  0  0  0  0  0  0  0  0
   -2.6429    0.8437    0.0000 C   0  0  0  0  0  0  0  0  0  0  0  0
   -3.0554    1.5582    0.0000 C   0  0  0  0  0  0  0  0  0  0  0  0
   -1.8179    0.8437    0.0000 C   0  0  0  0  0  0  0  0  0  0  0  0
   -1.4054    0.1292    0.0000 C   0  0  0  0  0  0  0  0  0  0  0  0
   -2.6429   -2.0142    0.0000 H   0  0  0  0  0  0  0  0  0  0  0  0
   -1.4054   -2.7287    0.0000 H   0  0  0  0  0  0  0  0  0  0  0  0
   -0.5804    0.1292    0.0000 H   0  0  0  0  0  0  0  0  0  0  0  0
    0.2825   -1.3203    0.0000 H   0  0  0  0  0  0  0  0  0  0  0  0
    1.6717    1.1218    0.0000 H   0  0  0  0  0  0  0  0  0  0  0  0
    0.6321    1.6514    0.0000 H   0  0  0  0  0  0  0  0  0  0  0  0
    0.1024    0.6119    0.0000 H   0  0  0  0  0  0  0  0  0  0  0  0
    2.6411    1.0648    0.0000 H   0  0  0  0  0  0  0  0  0  0  0  0
    4.0700    0.2398    0.0000 H   0  0  0  0  0  0  0  0  0  0  0  0
    4.0700   -1.4102    0.0000 H   0  0  0  0  0  0  0  0  0  0  0  0
    2.6411   -2.2352    0.0000 H   0  0  0  0  0  0  0  0  0  0  0  0
    0.8539   -2.7521    0.0000 H   0  0  0  0  0  0  0  0  0  0  0  0
    1.8539   -2.6774    0.0000 H   0  0  0  0  0  0  0  0  0  0  0  0
    2.0431   -1.6927    0.0000 H   0  0  0  0  0  0  0  0  0  0  0  0
   -0.2848   -1.7162    0.0000 H   0  0  0  0  0  0  0  0  0  0  0  0
   -0.0000   -2.4394    0.0000 H   0  0  0  0  0  0  0  0  0  0  0  0
    0.7593   -2.6049    0.0000 H   0  0  0  0  0  0  0  0  0  0  0  0
   -3.0554   -1.2997    0.0000 H   0  0  0  0  0  0  0  0  0  0  0  0
   -3.8804    0.1292    0.0000 H   0  0  0  0  0  0  0  0  0  0  0  0
   -2.3410    1.9707    0.0000 H   0  0  0  0  0  0  0  0  0  0  0  0
   -3.4679    2.2726    0.0000 H   0  0  0  0  0  0  0  0  0  0  0  0
   -3.7699    1.1457    0.0000 H   0  0  0  0  0  0  0  0  0  0  0  0
   -1.4054    1.5582    0.0000 H   0  0  0  0  0  0  0  0  0  0  0  0
   -0.9929   -0.5852    0.0000 H   0  0  0  0  0  0  0  0  0  0  0  0
  1  2  2  0  0  0  0
  3  2  1  4  0  0  0
  3  4  2  0  0  0  0
  4  5  1  0  0  0  0
  5  6  1  0  0  0  0
  6  7  1  0  0  0  0
  6  8  1  0  0  0  0
  8  9  4  0  0  0  0
  9 10  4  0  0  0  0
 10 11  4  0  0  0  0
 11 12  4  0  0  0  0
 12 13  4  0  0  0  0
  8 13  4  0  0  0  0
 13 14  1  0  0  0  0
  5 14  1  0  0  0  0
 14 15  1  0  0  0  0
 14 16  1  0  0  0  0
  2 17  1  0  0  0  0
 17 18  4  0  0  0  0
 18 19  4  0  0  0  0
 19 20  4  0  0  0  0
 20 21  1  0  0  0  0
 20 22  4  0  0  0  0
 22 23  4  0  0  0  0
 17 23  4  0  0  0  0
  1 24  1  0  0  0  0
  1 25  1  0  0  0  0
  4 26  1  0  0  0  0
  5 27  1  0  0  0  0
  7 28  1  0  0  0  0
  7 29  1  0  0  0  0
  7 30  1  0  0  0  0
  9 31  1  0  0  0  0
 10 32  1  0  0  0  0
 11 33  1  0  0  0  0
 12 34  1  0  0  0  0
 15 35  1  0  0  0  0
 15 36  1  0  0  0  0
 15 37  1  0  0  0  0
 16 38  1  0  0  0  0
 16 39  1  0  0  0  0
 16 40  1  0  0  0  0
 18 41  1  0  0  0  0
 19 42  1  0  0  0  0
 21 43  1  0  0  0  0
 21 44  1  0  0  0  0
 21 45  1  0  0  0  0
 22 46  1  0  0  0  0
 23 47  1  0  0  0  0
M  CHG  1   2   1
M  END
> <id>
952

> <casrn>
68134-38-3

> <smiles (First)>


> <Molecular weight>
306.4246520996094

> <name>
1,3,3-trimethyl-2-[(1E)-[2-methyl-2-(4-methylphenyl)hydrazin-1-ylidene]methyl]-3H-indol-1-ium chloride

> <Outcome>
1

> <Molecule (RDKit Mol) (InChI Code)>
InChI=1S/C20H24N3/c1-15-10-12-16(13-11-15)23(5)21-14-19-20(2,3)17-8-6-7-9-18(17)22(19)4/h6-14,19H,5H2,1-4H3/q+1

> <reference>
ECHA

> <molecule_form>
A

$$$$

  Mrv1812 01171911372D          

 50 49  0  0  0  0            999 V2000
    9.2563    5.3925    0.0000 O   0  0  0  0  0  0  0  0  0  0  0  0
    8.5418    5.8050    0.0000 C   0  0  0  0  0  0  0  0  0  0  0  0
    8.5418    6.6300    0.0000 O   0  0  0  0  0  0  0  0  0  0  0  0
    7.8273    5.3925    0.0000 C   0  0  0  0  0  0  0  0  0  0  0  0
    7.8273    4.5675    0.0000 N   0  0  0  0  0  0  0  0  0  0  0  0
    7.1128    4.1550    0.0000 C   0  0  0  0  0  0  0  0  0  0  0  0
    6.3984    4.5675    0.0000 C   0  0  0  0  0  0  0  0  0  0  0  0
    5.6839    4.1550    0.0000 N   0  0  0  0  0  0  0  0  0  0  0  0
    4.9694    4.5675    0.0000 C   0  0  0  0  0  0  0  0  0  0  0  0
    4.9694    5.3925    0.0000 C   0  0  0  0  0  0  0  0  0  0  0  0
    5.6839    5.8050    0.0000 O   0  0  0  0  0  0  0  0  0  0  0  0
    4.2550    5.8050    0.0000 O   0  0  0  0  0  0  0  0  0  0  0  0
    5.6839    3.3300    0.0000 C   0  0  0  0  0  0  0  0  0  0  0  0
    4.9694    2.9175    0.0000 C   0  0  0  0  0  0  0  0  0  0  0  0
    4.2550    3.3300    0.0000 O   0  0  0  0  0  0  0  0  0  0  0  0
    4.9694    2.0925    0.0000 O   0  0  0  0  0  0  0  0  0  0  0  0
    8.5418    4.1550    0.0000 C   0  0  0  0  0  0  0  0  0  0  0  0
    9.2563    4.5675    0.0000 C   0  0  0  0  0  0  0  0  0  0  0  0
    9.9707    4.1550    0.0000 N   0  0  0  0  0  0  0  0  0  0  0  0
   10.6852    4.5675    0.0000 C   0  0  0  0  0  0  0  0  0  0  0  0
   10.6852    5.3925    0.0000 C   0  0  0  0  0  0  0  0  0  0  0  0
    9.9707    5.8050    0.0000 O   0  0  0  0  0  0  0  0  0  0  0  0
   11.3997    5.8050    0.0000 O   0  0  0  0  0  0  0  0  0  0  0  0
    9.9707    3.3300    0.0000 C   0  0  0  0  0  0  0  0  0  0  0  0
   10.6852    2.9175    0.0000 C   0  0  0  0  0  0  0  0  0  0  0  0
   11.3997    3.3300    0.0000 O   0  0  0  0  0  0  0  0  0  0  0  0
   10.6852    2.0925    0.0000 O   0  0  0  0  0  0  0  0  0  0  0  0
    9.2563    7.0425    0.0000 H   0  0  0  0  0  0  0  0  0  0  0  0
    7.3740    6.0818    0.0000 H   0  0  0  0  0  0  0  0  0  0  0  0
    7.0037    5.4405    0.0000 H   0  0  0  0  0  0  0  0  0  0  0  0
    6.7426    3.4178    0.0000 H   0  0  0  0  0  0  0  0  0  0  0  0
    7.4831    3.4178    0.0000 H   0  0  0  0  0  0  0  0  0  0  0  0
    6.7686    5.3048    0.0000 H   0  0  0  0  0  0  0  0  0  0  0  0
    6.0281    5.3048    0.0000 H   0  0  0  0  0  0  0  0  0  0  0  0
    4.1458    4.5195    0.0000 H   0  0  0  0  0  0  0  0  0  0  0  0
    4.5161    3.8782    0.0000 H   0  0  0  0  0  0  0  0  0  0  0  0
    4.2550    6.6300    0.0000 H   0  0  0  0  0  0  0  0  0  0  0  0
    6.1372    2.6407    0.0000 H   0  0  0  0  0  0  0  0  0  0  0  0
    6.5075    3.2820    0.0000 H   0  0  0  0  0  0  0  0  0  0  0  0
    4.2550    1.6800    0.0000 H   0  0  0  0  0  0  0  0  0  0  0  0
    8.1715    3.4178    0.0000 H   0  0  0  0  0  0  0  0  0  0  0  0
    8.9120    3.4178    0.0000 H   0  0  0  0  0  0  0  0  0  0  0  0
    8.5418    4.9800    0.0000 H   0  0  0  0  0  0  0  0  0  0  0  0
    9.9707    4.9800    0.0000 H   0  0  0  0  0  0  0  0  0  0  0  0
   11.1385    3.8782    0.0000 H   0  0  0  0  0  0  0  0  0  0  0  0
   11.5088    4.5195    0.0000 H   0  0  0  0  0  0  0  0  0  0  0  0
   12.1141    5.3925    0.0000 H   0  0  0  0  0  0  0  0  0  0  0  0
    9.1471    3.2820    0.0000 H   0  0  0  0  0  0  0  0  0  0  0  0
    9.5174    2.6407    0.0000 H   0  0  0  0  0  0  0  0  0  0  0  0
    9.9707    1.6800    0.0000 H   0  0  0  0  0  0  0  0  0  0  0  0
  1  2  2  0  0  0  0
  2  3  1  0  0  0  0
  2  4  1  0  0  0  0
  4  5  1  0  0  0  0
  5  6  1  0  0  0  0
  6  7  1  0  0  0  0
  7  8  1  0  0  0  0
  8  9  1  0  0  0  0
  9 10  1  0  0  0  0
 10 11  2  0  0  0  0
 10 12  1  0  0  0  0
  8 13  1  0  0  0  0
 13 14  1  0  0  0  0
 14 15  2  0  0  0  0
 14 16  1  0  0  0  0
  5 17  1  0  0  0  0
 17 18  1  0  0  0  0
 18 19  1  0  0  0  0
 19 20  1  0  0  0  0
 20 21  1  0  0  0  0
 21 22  2  0  0  0  0
 21 23  1  0  0  0  0
 19 24  1  0  0  0  0
 24 25  1  0  0  0  0
 25 26  2  0  0  0  0
 25 27  1  0  0  0  0
  3 28  1  0  0  0  0
  4 29  1  0  0  0  0
  4 30  1  0  0  0  0
  6 31  1  0  0  0  0
  6 32  1  0  0  0  0
  7 33  1  0  0  0  0
  7 34  1  0  0  0  0
  9 35  1  0  0  0  0
  9 36  1  0  0  0  0
 12 37  1  0  0  0  0
 13 38  1  0  0  0  0
 13 39  1  0  0  0  0
 16 40  1  0  0  0  0
 17 41  1  0  0  0  0
 17 42  1  0  0  0  0
 18 43  1  0  0  0  0
 18 44  1  0  0  0  0
 20 45  1  0  0  0  0
 20 46  1  0  0  0  0
 23 47  1  0  0  0  0
 24 48  1  0  0  0  0
 24 49  1  0  0  0  0
 27 50  1  0  0  0  0
M  END
> <id>
3370

> <casrn>
12389-75-2

> <smiles (First)>


> <Molecular weight>
389.31475830078125

> <name>
iron(3+) ion sodium 2-{[2-({2-[bis(carboxylatomethyl)amino]ethyl}(carboxylatomethyl)amino)ethyl](carboxymethyl)amino}acetate

> <Outcome>
0

> <Molecule (RDKit Mol) (InChI Code)>
InChI=1S/C14H23N3O10/c18-10(19)5-15(1-3-16(6-11(20)21)7-12(22)23)2-4-17(8-13(24)25)9-14(26)27/h1-9H2,(H,18,19)(H,20,21)(H,22,23)(H,24,25)(H,26,27)

> <reference>
ECHA

> <molecule_form>
A

$$$$

  Mrv1812 01171911372D          

 18 18  0  0  0  0            999 V2000
    1.4289    2.4750    0.0000 O   0  0  0  0  0  0  0  0  0  0  0  0
    0.7145    2.0625    0.0000 C   0  0  0  0  0  0  0  0  0  0  0  0
   -0.0000    2.4750    0.0000 O   0  0  0  0  0  0  0  0  0  0  0  0
    0.7145    1.2375    0.0000 C   0  0  0  0  0  0  0  0  0  0  0  0
    1.4289    0.8250    0.0000 C   0  0  0  0  0  0  0  0  0  0  0  0
    1.4289    0.0000    0.0000 C   0  0  0  0  0  0  0  0  0  0  0  0
    0.7145   -0.4125    0.0000 C   0  0  0  0  0  0  0  0  0  0  0  0
   -0.0000    0.0000    0.0000 C   0  0  0  0  0  0  0  0  0  0  0  0
   -0.7145   -0.4125    0.0000 C   0  0  0  0  0  0  0  0  0  0  0  0
   -0.7145   -1.2375    0.0000 O   0  0  0  0  0  0  0  0  0  0  0  0
   -1.4289    0.0000    0.0000 O   0  0  0  0  0  0  0  0  0  0  0  0
   -0.0000    0.8250    0.0000 C   0  0  0  0  0  0  0  0  0  0  0  0
   -0.0000    3.3000    0.0000 H   0  0  0  0  0  0  0  0  0  0  0  0
    2.1434    1.2375    0.0000 H   0  0  0  0  0  0  0  0  0  0  0  0
    2.1434   -0.4125    0.0000 H   0  0  0  0  0  0  0  0  0  0  0  0
    0.7145   -1.2375    0.0000 H   0  0  0  0  0  0  0  0  0  0  0  0
   -1.4289    0.8250    0.0000 H   0  0  0  0  0  0  0  0  0  0  0  0
   -0.7145    1.2375    0.0000 H   0  0  0  0  0  0  0  0  0  0  0  0
  1  2  2  0  0  0  0
  2  3  1  0  0  0  0
  2  4  1  0  0  0  0
  4  5  4  0  0  0  0
  5  6  4  0  0  0  0
  6  7  4  0  0  0  0
  7  8  4  0  0  0  0
  8  9  1  0  0  0  0
  9 10  2  0  0  0  0
  9 11  1  0  0  0  0
  8 12  4  0  0  0  0
  4 12  4  0  0  0  0
  3 13  1  0  0  0  0
  5 14  1  0  0  0  0
  6 15  1  0  0  0  0
  7 16  1  0  0  0  0
 11 17  1  0  0  0  0
 12 18  1  0  0  0  0
M  END
> <id>
2619; 2620

> <casrn>
121-91-5

> <smiles (First)>


> <Molecular weight>
166.13084411621094

> <name>
benzene-1,3-dicarboxylic acid

> <Outcome>
0

> <Molecule (RDKit Mol) (InChI Code)>
InChI=1S/C8H6O4/c9-7(10)5-2-1-3-6(4-5)8(11)12/h1-4H,(H,9,10)(H,11,12)

> <reference>
ECHA

> <molecule_form>
A

$$$$

  Mrv1812 01171911372D          

 18 17  0  0  0  0            999 V2000
   -0.6056   -3.2990    0.0000 C   0  0  0  0  0  0  0  0  0  0  0  0
   -0.6056   -2.4740    0.0000 C   0  0  0  0  0  0  0  0  0  0  0  0
   -1.3201   -2.0615    0.0000 C   0  0  0  0  0  0  0  0  0  0  0  0
    0.1088   -2.0615    0.0000 C   0  0  0  0  0  0  0  0  0  0  0  0
    0.8233   -2.4740    0.0000 O   0  0  0  0  0  0  0  0  0  0  0  0
    0.1088   -1.2365    0.0000 O   0  0  0  0  0  0  0  0  0  0  0  0
    0.8233   -0.8240    0.0000 C   0  0  0  0  0  0  0  0  0  0  0  0
    0.8233    0.0010    0.0000 C   0  0  0  0  0  0  0  0  0  0  0  0
    0.8233    0.8260    0.0000 F   0  0  0  0  0  0  0  0  0  0  0  0
    1.6483    0.0010    0.0000 F   0  0  0  0  0  0  0  0  0  0  0  0
   -0.0017    0.0010    0.0000 F   0  0  0  0  0  0  0  0  0  0  0  0
   -1.3201   -3.7115    0.0000 H   0  0  0  0  0  0  0  0  0  0  0  0
    0.1088   -3.7115    0.0000 H   0  0  0  0  0  0  0  0  0  0  0  0
   -0.9076   -1.3470    0.0000 H   0  0  0  0  0  0  0  0  0  0  0  0
   -2.0346   -1.6490    0.0000 H   0  0  0  0  0  0  0  0  0  0  0  0
   -1.7326   -2.7760    0.0000 H   0  0  0  0  0  0  0  0  0  0  0  0
    1.2767   -1.5133    0.0000 H   0  0  0  0  0  0  0  0  0  0  0  0
    1.6469   -0.8720    0.0000 H   0  0  0  0  0  0  0  0  0  0  0  0
  1  2  2  0  0  0  0
  2  3  1  0  0  0  0
  2  4  1  0  0  0  0
  4  5  2  0  0  0  0
  4  6  1  0  0  0  0
  6  7  1  0  0  0  0
  7  8  1  0  0  0  0
  8  9  1  0  0  0  0
  8 10  1  0  0  0  0
  8 11  1  0  0  0  0
  1 12  1  0  0  0  0
  1 13  1  0  0  0  0
  3 14  1  0  0  0  0
  3 15  1  0  0  0  0
  3 16  1  0  0  0  0
  7 17  1  0  0  0  0
  7 18  1  0  0  0  0
M  END
> <id>
1241; 1240

> <casrn>
352-87-4

> <smiles (First)>


> <Molecular weight>
168.11380004882812

> <name>
2,2,2-trifluoroethyl methacrylate

> <Outcome>
1

> <Molecule (RDKit Mol) (InChI Code)>
InChI=1S/C6H7F3O2/c1-4(2)5(10)11-3-6(7,8)9/h1,3H2,2H3

> <reference>
ECHA

> <molecule_form>
V

$$$$

  Mrv1812 01171911372D          

 10  9  0  0  0  0            999 V2000
    2.3421   -1.3879    0.0000 C   0  0  0  0  0  0  0  0  0  0  0  0
    1.9296   -0.6734    0.0000 C   0  0  0  0  0  0  0  0  0  0  0  0
    1.1046   -0.6734    0.0000 N   0  0  0  0  0  0  0  0  0  0  0  0
    1.6276   -1.8004    0.0000 H   0  0  0  0  0  0  0  0  0  0  0  0
    2.7546   -2.1024    0.0000 H   0  0  0  0  0  0  0  0  0  0  0  0
    3.0566   -0.9754    0.0000 H   0  0  0  0  0  0  0  0  0  0  0  0
    2.6189   -0.2201    0.0000 H   0  0  0  0  0  0  0  0  0  0  0  0
    1.9776    0.1502    0.0000 H   0  0  0  0  0  0  0  0  0  0  0  0
    0.6921    0.0410    0.0000 H   0  0  0  0  0  0  0  0  0  0  0  0
    0.6921   -1.3879    0.0000 H   0  0  0  0  0  0  0  0  0  0  0  0
  1  2  1  0  0  0  0
  2  3  1  0  0  0  0
  1  4  1  0  0  0  0
  1  5  1  0  0  0  0
  1  6  1  0  0  0  0
  2  7  1  0  0  0  0
  2  8  1  0  0  0  0
  3  9  1  0  0  0  0
  3 10  1  0  0  0  0
M  END
> <id>
3108

> <casrn>
75-04-7

> <smiles (First)>


> <Molecular weight>
45.08367919921875

> <name>
ethanamine

> <Outcome>
1

> <Molecule (RDKit Mol) (InChI Code)>
InChI=1S/C2H7N/c1-2-3/h2-3H2,1H3

> <reference>
ECHA

> <molecule_form>
G

$$$$

  Mrv1812 01171911372D          

 22 21  0  0  0  0            999 V2000
    2.4152    0.0436    0.0000 C   0  0  0  0  0  0  0  0  0  0  0  0
    2.0027    0.7581    0.0000 C   0  0  0  0  0  0  0  0  0  0  0  0
    1.1777    0.7581    0.0000 Si  0  0  0  0  0  0  0  0  0  0  0  0
    0.7652    1.4725    0.0000 C   0  0  0  0  0  0  0  0  0  0  0  0
   -0.0598    1.4725    0.0000 C   0  0  0  0  0  0  0  0  0  0  0  0
    0.7652    0.0436    0.0000 C   0  0  0  0  0  0  0  0  0  0  0  0
   -0.0598    0.0436    0.0000 C   0  0  0  0  0  0  0  0  0  0  0  0
    1.7007   -0.3689    0.0000 H   0  0  0  0  0  0  0  0  0  0  0  0
    2.8277   -0.6709    0.0000 H   0  0  0  0  0  0  0  0  0  0  0  0
    3.1296    0.4561    0.0000 H   0  0  0  0  0  0  0  0  0  0  0  0
    2.6920    1.2114    0.0000 H   0  0  0  0  0  0  0  0  0  0  0  0
    2.0506    1.5817    0.0000 H   0  0  0  0  0  0  0  0  0  0  0  0
    1.4545    1.9259    0.0000 H   0  0  0  0  0  0  0  0  0  0  0  0
    0.8131    2.2961    0.0000 H   0  0  0  0  0  0  0  0  0  0  0  0
   -0.0598    2.2975    0.0000 H   0  0  0  0  0  0  0  0  0  0  0  0
   -0.8848    1.4725    0.0000 H   0  0  0  0  0  0  0  0  0  0  0  0
   -0.0598    0.6475    0.0000 H   0  0  0  0  0  0  0  0  0  0  0  0
    0.8131   -0.7800    0.0000 H   0  0  0  0  0  0  0  0  0  0  0  0
    1.4545   -0.4097    0.0000 H   0  0  0  0  0  0  0  0  0  0  0  0
   -0.8220    0.3593    0.0000 H   0  0  0  0  0  0  0  0  0  0  0  0
   -0.6432   -0.5398    0.0000 H   0  0  0  0  0  0  0  0  0  0  0  0
    0.2559   -0.7186    0.0000 H   0  0  0  0  0  0  0  0  0  0  0  0
  1  2  1  0  0  0  0
  2  3  1  0  0  0  0
  3  4  1  0  0  0  0
  4  5  1  0  0  0  0
  3  6  1  0  0  0  0
  6  7  1  0  0  0  0
  1  8  1  0  0  0  0
  1  9  1  0  0  0  0
  1 10  1  0  0  0  0
  2 11  1  0  0  0  0
  2 12  1  0  0  0  0
  4 13  1  0  0  0  0
  4 14  1  0  0  0  0
  5 15  1  0  0  0  0
  5 16  1  0  0  0  0
  5 17  1  0  0  0  0
  6 18  1  0  0  0  0
  6 19  1  0  0  0  0
  7 20  1  0  0  0  0
  7 21  1  0  0  0  0
  7 22  1  0  0  0  0
M  RAD  1   3   2
M  END
> <id>
4074

> <casrn>
617-86-7

> <smiles (First)>


> <Molecular weight>
115.268798828125

> <name>
triethylsilane

> <Outcome>
0

> <Molecule (RDKit Mol) (InChI Code)>
InChI=1S/C6H15Si/c1-4-7(5-2)6-3/h4-6H2,1-3H3

> <reference>
ECHA

> <molecule_form>
V

$$$$

  Mrv1812 01171911372D          

 13 13  0  0  0  0            999 V2000
    0.5660    1.1119    0.0000 C   0  0  0  0  0  0  0  0  0  0  0  0
    1.2335    0.6270    0.0000 C   0  0  0  0  0  0  0  0  0  0  0  0
    0.9785   -0.1576    0.0000 C   0  0  0  0  0  0  0  0  0  0  0  0
    0.1535   -0.1576    0.0000 S   0  0  0  0  0  0  0  0  0  0  0  0
   -0.1014    0.6270    0.0000 C   0  0  0  0  0  0  0  0  0  0  0  0
    0.9533    1.8404    0.0000 H   0  0  0  0  0  0  0  0  0  0  0  0
    0.1787    1.8404    0.0000 H   0  0  0  0  0  0  0  0  0  0  0  0
    2.0459    0.4837    0.0000 H   0  0  0  0  0  0  0  0  0  0  0  0
    1.8066    1.2205    0.0000 H   0  0  0  0  0  0  0  0  0  0  0  0
    1.0933   -0.9746    0.0000 H   0  0  0  0  0  0  0  0  0  0  0  0
    1.7200   -0.5193    0.0000 H   0  0  0  0  0  0  0  0  0  0  0  0
   -0.6745    1.2205    0.0000 H   0  0  0  0  0  0  0  0  0  0  0  0
   -0.9139    0.4837    0.0000 H   0  0  0  0  0  0  0  0  0  0  0  0
  1  2  1  0  0  0  0
  2  3  1  0  0  0  0
  3  4  1  0  0  0  0
  4  5  1  0  0  0  0
  1  5  1  0  0  0  0
  1  6  1  0  0  0  0
  1  7  1  0  0  0  0
  2  8  1  0  0  0  0
  2  9  1  0  0  0  0
  3 10  1  0  0  0  0
  3 11  1  0  0  0  0
  5 12  1  0  0  0  0
  5 13  1  0  0  0  0
M  END
> <id>
3988

> <casrn>
110-01-0

> <smiles (First)>


> <Molecular weight>
88.17131805419922

> <name>
thiolane

> <Outcome>
0

> <Molecule (RDKit Mol) (InChI Code)>
InChI=1S/C4H8S/c1-2-4-5-3-1/h1-4H2

> <reference>
ECHA

> <molecule_form>
V

$$$$

  Mrv1812 01171911372D          

  9  8  0  0  0  0            999 V2000
    0.1071   -1.2355    0.0000 O   0  0  0  0  0  0  0  0  0  0  0  0
    0.8216   -0.8230    0.0000 C   0  0  0  0  0  0  0  0  0  0  0  0
    0.8216    0.0020    0.0000 C   0  0  0  0  0  0  0  0  0  0  0  0
    0.8216    0.8270    0.0000 F   0  0  0  0  0  0  0  0  0  0  0  0
    1.6466    0.0020    0.0000 F   0  0  0  0  0  0  0  0  0  0  0  0
   -0.0034    0.0020    0.0000 F   0  0  0  0  0  0  0  0  0  0  0  0
   -0.6073   -0.8230    0.0000 H   0  0  0  0  0  0  0  0  0  0  0  0
    1.2749   -1.5123    0.0000 H   0  0  0  0  0  0  0  0  0  0  0  0
    1.6452   -0.8710    0.0000 H   0  0  0  0  0  0  0  0  0  0  0  0
  1  2  1  0  0  0  0
  2  3  1  0  0  0  0
  3  4  1  0  0  0  0
  3  5  1  0  0  0  0
  3  6  1  0  0  0  0
  1  7  1  0  0  0  0
  2  8  1  0  0  0  0
  2  9  1  0  0  0  0
M  END
> <id>
1239

> <casrn>
75-89-8

> <smiles (First)>


> <Molecular weight>
100.03983306884766

> <name>
2,2,2-trifluoroethan-1-ol

> <Outcome>
1

> <Molecule (RDKit Mol) (InChI Code)>
InChI=1S/C2H3F3O/c3-2(4,5)1-6/h6H,1H2

> <reference>
ECHA

> <molecule_form>
V

$$$$

  Mrv1812 01171911372D          

 29 28  0  0  0  0            999 V2000
    4.9500   -2.8579    0.0000 C   0  0  0  0  0  0  0  0  0  0  0  0
    4.1250   -2.8579    0.0000 C   0  0  0  0  0  0  0  0  0  0  0  0
    3.7125   -2.1434    0.0000 C   0  0  0  0  0  0  0  0  0  0  0  0
    2.8875   -2.1434    0.0000 C   0  0  0  0  0  0  0  0  0  0  0  0
    2.4750   -1.4289    0.0000 Sn  0  0  0  0  0  0  0  0  0  0  0  0
    3.1895   -1.0164    0.0000 Cl  0  0  0  0  0  0  0  0  0  0  0  0
    1.7605   -1.8414    0.0000 Cl  0  0  0  0  0  0  0  0  0  0  0  0
    2.0625   -0.7145    0.0000 C   0  0  0  0  0  0  0  0  0  0  0  0
    1.2375   -0.7145    0.0000 C   0  0  0  0  0  0  0  0  0  0  0  0
    0.8250   -0.0000    0.0000 C   0  0  0  0  0  0  0  0  0  0  0  0
   -0.0000   -0.0000    0.0000 C   0  0  0  0  0  0  0  0  0  0  0  0
    4.9500   -3.6829    0.0000 H   0  0  0  0  0  0  0  0  0  0  0  0
    5.7750   -2.8579    0.0000 H   0  0  0  0  0  0  0  0  0  0  0  0
    4.9500   -2.0329    0.0000 H   0  0  0  0  0  0  0  0  0  0  0  0
    3.4357   -3.3112    0.0000 H   0  0  0  0  0  0  0  0  0  0  0  0
    4.0770   -3.6815    0.0000 H   0  0  0  0  0  0  0  0  0  0  0  0
    4.4018   -1.6901    0.0000 H   0  0  0  0  0  0  0  0  0  0  0  0
    3.7605   -1.3198    0.0000 H   0  0  0  0  0  0  0  0  0  0  0  0
    2.1982   -2.5968    0.0000 H   0  0  0  0  0  0  0  0  0  0  0  0
    2.8395   -2.9670    0.0000 H   0  0  0  0  0  0  0  0  0  0  0  0
    2.7518   -0.2611    0.0000 H   0  0  0  0  0  0  0  0  0  0  0  0
    2.1105    0.1091    0.0000 H   0  0  0  0  0  0  0  0  0  0  0  0
    0.5482   -1.1678    0.0000 H   0  0  0  0  0  0  0  0  0  0  0  0
    1.1895   -1.5381    0.0000 H   0  0  0  0  0  0  0  0  0  0  0  0
    1.5143    0.4533    0.0000 H   0  0  0  0  0  0  0  0  0  0  0  0
    0.8730    0.8236    0.0000 H   0  0  0  0  0  0  0  0  0  0  0  0
   -0.0000    0.8250    0.0000 H   0  0  0  0  0  0  0  0  0  0  0  0
   -0.8250   -0.0000    0.0000 H   0  0  0  0  0  0  0  0  0  0  0  0
   -0.0000   -0.8250    0.0000 H   0  0  0  0  0  0  0  0  0  0  0  0
  1  2  1  0  0  0  0
  2  3  1  0  0  0  0
  3  4  1  0  0  0  0
  4  5  1  0  0  0  0
  5  6  1  0  0  0  0
  5  7  1  0  0  0  0
  5  8  1  0  0  0  0
  8  9  1  0  0  0  0
  9 10  1  0  0  0  0
 10 11  1  0  0  0  0
  1 12  1  0  0  0  0
  1 13  1  0  0  0  0
  1 14  1  0  0  0  0
  2 15  1  0  0  0  0
  2 16  1  0  0  0  0
  3 17  1  0  0  0  0
  3 18  1  0  0  0  0
  4 19  1  0  0  0  0
  4 20  1  0  0  0  0
  8 21  1  0  0  0  0
  8 22  1  0  0  0  0
  9 23  1  0  0  0  0
  9 24  1  0  0  0  0
 10 25  1  0  0  0  0
 10 26  1  0  0  0  0
 11 27  1  0  0  0  0
 11 28  1  0  0  0  0
 11 29  1  0  0  0  0
M  END
> <id>
2924

> <casrn>
683-18-1

> <smiles (First)>


> <Molecular weight>
303.8445129394531

> <name>
dibutylstannanebis(ylium) dichloride

> <Outcome>
1

> <Molecule (RDKit Mol) (InChI Code)>
InChI=1S/2C4H9.2ClH.Sn/c2*1-3-4-2;;;/h2*1,3-4H2,2H3;2*1H;/q;;;;+2/p-2

> <reference>
ECHA

> <molecule_form>
A

$$$$

  Mrv1812 01171911372D          

 54 56  0  0  0  0            999 V2000
   -5.1786   -2.1193    0.0000 C   0  0  0  0  0  0  0  0  0  0  0  0
   -4.3536   -2.1193    0.0000 C   0  0  0  0  0  0  0  0  0  0  0  0
   -3.9411   -1.4048    0.0000 N   0  0  0  0  0  0  0  0  0  0  0  0
   -4.3536   -0.6903    0.0000 C   0  0  0  0  0  0  0  0  0  0  0  0
   -3.9411    0.0241    0.0000 C   0  0  0  0  0  0  0  0  0  0  0  0
   -3.1161   -1.4048    0.0000 C   0  0  0  0  0  0  0  0  0  0  0  0
   -2.7036   -0.6903    0.0000 C   0  0  0  0  0  0  0  0  0  0  0  0
   -1.8786   -0.6903    0.0000 C   0  0  0  0  0  0  0  0  0  0  0  0
   -1.4661   -1.4048    0.0000 C   0  0  0  0  0  0  0  0  0  0  0  0
   -0.6411   -1.4048    0.0000 C   0  0  0  0  0  0  0  0  0  0  0  0
   -0.2286   -0.6903    0.0000 C   0  0  0  0  0  0  0  0  0  0  0  0
    0.5964   -0.6903    0.0000 C   0  0  0  0  0  0  0  0  0  0  0  0
    1.0813   -0.0229    0.0000 N   0  3  0  0  0  0  0  0  0  0  0  0
    0.8264    0.7617    0.0000 C   0  0  0  0  0  0  0  0  0  0  0  0
    1.8659   -0.2778    0.0000 C   0  0  0  0  0  0  0  0  0  0  0  0
    2.5804    0.1347    0.0000 C   0  0  0  0  0  0  0  0  0  0  0  0
    3.2949   -0.2778    0.0000 C   0  0  0  0  0  0  0  0  0  0  0  0
    3.2949   -1.1028    0.0000 C   0  0  0  0  0  0  0  0  0  0  0  0
    2.5804   -1.5153    0.0000 C   0  0  0  0  0  0  0  0  0  0  0  0
    1.8659   -1.1028    0.0000 C   0  0  0  0  0  0  0  0  0  0  0  0
    1.0813   -1.3578    0.0000 C   0  0  0  0  0  0  0  0  0  0  0  0
    1.2444   -2.1665    0.0000 C   0  0  0  0  0  0  0  0  0  0  0  0
    0.4740   -1.9162    0.0000 C   0  0  0  0  0  0  0  0  0  0  0  0
   -1.8786   -2.1193    0.0000 C   0  0  0  0  0  0  0  0  0  0  0  0
   -2.7036   -2.1193    0.0000 C   0  0  0  0  0  0  0  0  0  0  0  0
   -5.1786   -1.2943    0.0000 H   0  0  0  0  0  0  0  0  0  0  0  0
   -6.0036   -2.1193    0.0000 H   0  0  0  0  0  0  0  0  0  0  0  0
   -5.1786   -2.9443    0.0000 H   0  0  0  0  0  0  0  0  0  0  0  0
   -4.3056   -2.9429    0.0000 H   0  0  0  0  0  0  0  0  0  0  0  0
   -3.6643   -2.5726    0.0000 H   0  0  0  0  0  0  0  0  0  0  0  0
   -5.0909   -0.3201    0.0000 H   0  0  0  0  0  0  0  0  0  0  0  0
   -5.0909   -1.0606    0.0000 H   0  0  0  0  0  0  0  0  0  0  0  0
   -3.2266   -0.3884    0.0000 H   0  0  0  0  0  0  0  0  0  0  0  0
   -3.5286    0.7386    0.0000 H   0  0  0  0  0  0  0  0  0  0  0  0
   -4.6556    0.4366    0.0000 H   0  0  0  0  0  0  0  0  0  0  0  0
   -2.4901    0.1066    0.0000 H   0  0  0  0  0  0  0  0  0  0  0  0
   -1.4661    0.0241    0.0000 H   0  0  0  0  0  0  0  0  0  0  0  0
   -0.2286   -2.1193    0.0000 H   0  0  0  0  0  0  0  0  0  0  0  0
   -0.6411    0.0241    0.0000 H   0  0  0  0  0  0  0  0  0  0  0  0
    1.6110    1.0167    0.0000 H   0  0  0  0  0  0  0  0  0  0  0  0
    0.5714    1.5464    0.0000 H   0  0  0  0  0  0  0  0  0  0  0  0
    0.0417    0.5068    0.0000 H   0  0  0  0  0  0  0  0  0  0  0  0
    2.5804    0.9597    0.0000 H   0  0  0  0  0  0  0  0  0  0  0  0
    4.0093    0.1347    0.0000 H   0  0  0  0  0  0  0  0  0  0  0  0
    4.0093   -1.5153    0.0000 H   0  0  0  0  0  0  0  0  0  0  0  0
    2.5804   -2.3403    0.0000 H   0  0  0  0  0  0  0  0  0  0  0  0
    0.7932   -2.8572    0.0000 H   0  0  0  0  0  0  0  0  0  0  0  0
    1.7932   -2.7825    0.0000 H   0  0  0  0  0  0  0  0  0  0  0  0
    1.9824   -1.7977    0.0000 H   0  0  0  0  0  0  0  0  0  0  0  0
    0.1221   -2.6623    0.0000 H   0  0  0  0  0  0  0  0  0  0  0  0
    0.8013   -2.6735    0.0000 H   0  0  0  0  0  0  0  0  0  0  0  0
    0.0695   -1.1972    0.0000 H   0  0  0  0  0  0  0  0  0  0  0  0
   -1.4661   -2.8337    0.0000 H   0  0  0  0  0  0  0  0  0  0  0  0
   -3.1161   -2.8337    0.0000 H   0  0  0  0  0  0  0  0  0  0  0  0
  1  2  1  0  0  0  0
  2  3  1  0  0  0  0
  3  4  1  0  0  0  0
  4  5  1  0  0  0  0
  3  6  1  0  0  0  0
  6  7  4  0  0  0  0
  7  8  4  0  0  0  0
  8  9  4  0  0  0  0
 10  9  1  4  0  0  0
 10 11  2  0  0  0  0
 11 12  1  0  0  0  0
 12 13  2  0  0  0  0
 13 14  1  0  0  0  0
 13 15  1  0  0  0  0
 15 16  4  0  0  0  0
 16 17  4  0  0  0  0
 17 18  4  0  0  0  0
 18 19  4  0  0  0  0
 19 20  4  0  0  0  0
 15 20  4  0  0  0  0
 20 21  1  0  0  0  0
 12 21  1  0  0  0  0
 21 22  1  0  0  0  0
 21 23  1  0  0  0  0
  9 24  4  0  0  0  0
 24 25  4  0  0  0  0
  6 25  4  0  0  0  0
  1 26  1  0  0  0  0
  1 27  1  0  0  0  0
  1 28  1  0  0  0  0
  2 29  1  0  0  0  0
  2 30  1  0  0  0  0
  4 31  1  0  0  0  0
  4 32  1  0  0  0  0
  5 33  1  0  0  0  0
  5 34  1  0  0  0  0
  5 35  1  0  0  0  0
  7 36  1  0  0  0  0
  8 37  1  0  0  0  0
 10 38  1  0  0  0  0
 11 39  1  0  0  0  0
 14 40  1  0  0  0  0
 14 41  1  0  0  0  0
 14 42  1  0  0  0  0
 16 43  1  0  0  0  0
 17 44  1  0  0  0  0
 18 45  1  0  0  0  0
 19 46  1  0  0  0  0
 22 47  1  0  0  0  0
 22 48  1  0  0  0  0
 22 49  1  0  0  0  0
 23 50  1  0  0  0  0
 23 51  1  0  0  0  0
 23 52  1  0  0  0  0
 24 53  1  0  0  0  0
 25 54  1  0  0  0  0
M  CHG  1  13   1
M  END
> <id>
1406; 1407

> <casrn>
75535-16-9

> <smiles (First)>


> <Molecular weight>
333.4897766113281

> <name>
2-[2-[4-(diethylamino)phenyl]vinyl]-1,3,3-trimethyl-3H-indolium dihydrogen phosphate

> <Outcome>
1

> <Molecule (RDKit Mol) (InChI Code)>
InChI=1S/C23H29N2/c1-6-25(7-2)19-15-12-18(13-16-19)14-17-22-23(3,4)20-10-8-9-11-21(20)24(22)5/h8-17H,6-7H2,1-5H3/q+1

> <reference>
ECHA

> <molecule_form>
A

$$$$

  Mrv1812 01171911372D          

  3  2  0  0  0  0            999 V2000
    0.8250    0.0000    0.0000 C   0  0  0  0  0  0  0  0  0  0  0  0
    0.0000   -0.0000    0.0000 W   0  0  0  0  0  0  0  0  0  0  0  0
    1.6500   -0.0000    0.0000 H   0  0  0  0  0  0  0  0  0  0  0  0
  1  2  3  0  0  0  0
  1  3  1  0  0  0  0
M  END
> <id>
4134

> <casrn>
12070-12-1

> <smiles (First)>


> <Molecular weight>
195.85069274902344

> <name>
tungsten(4+) ion methanetetraide

> <Outcome>
0

> <Molecule (RDKit Mol) (InChI Code)>
InChI=1S/CH.W/h1H;

> <reference>
ECHA

> <molecule_form>
A

$$$$

  Mrv1812 01171911372D          

 15 14  0  0  0  0            999 V2000
    2.4726   -1.4330    0.0000 C   0  0  0  0  0  0  0  0  0  0  0  0
    2.0601   -0.7185    0.0000 C   0  0  0  0  0  0  0  0  0  0  0  0
    1.2351   -0.7185    0.0000 O   0  0  0  0  0  0  0  0  0  0  0  0
    0.8226   -0.0041    0.0000 C   0  0  0  0  0  0  0  0  0  0  0  0
   -0.0024   -0.0041    0.0000 C   0  0  0  0  0  0  0  0  0  0  0  0
    1.7582   -1.8455    0.0000 H   0  0  0  0  0  0  0  0  0  0  0  0
    2.8851   -2.1475    0.0000 H   0  0  0  0  0  0  0  0  0  0  0  0
    3.1871   -1.0205    0.0000 H   0  0  0  0  0  0  0  0  0  0  0  0
    2.7494   -0.2652    0.0000 H   0  0  0  0  0  0  0  0  0  0  0  0
    2.1081    0.1051    0.0000 H   0  0  0  0  0  0  0  0  0  0  0  0
    1.5119    0.4493    0.0000 H   0  0  0  0  0  0  0  0  0  0  0  0
    0.8706    0.8195    0.0000 H   0  0  0  0  0  0  0  0  0  0  0  0
   -0.0024    0.8209    0.0000 H   0  0  0  0  0  0  0  0  0  0  0  0
   -0.8274   -0.0041    0.0000 H   0  0  0  0  0  0  0  0  0  0  0  0
   -0.0024   -0.8291    0.0000 H   0  0  0  0  0  0  0  0  0  0  0  0
  1  2  1  0  0  0  0
  2  3  1  0  0  0  0
  3  4  1  0  0  0  0
  4  5  1  0  0  0  0
  1  6  1  0  0  0  0
  1  7  1  0  0  0  0
  1  8  1  0  0  0  0
  2  9  1  0  0  0  0
  2 10  1  0  0  0  0
  4 11  1  0  0  0  0
  4 12  1  0  0  0  0
  5 13  1  0  0  0  0
  5 14  1  0  0  0  0
  5 15  1  0  0  0  0
M  END
> <id>
3144

> <casrn>
60-29-7

> <smiles (First)>


> <Molecular weight>
74.1216049194336

> <name>
ethoxyethane

> <Outcome>
0

> <Molecule (RDKit Mol) (InChI Code)>
InChI=1S/C4H10O/c1-3-5-4-2/h3-4H2,1-2H3

> <reference>
ECHA

> <molecule_form>
V

$$$$

  Mrv1812 01171911372D          

 23 23  0  0  0  0            999 V2000
   -0.0000    3.3000    0.0000 C   0  0  0  0  0  0  0  0  0  0  0  0
   -0.0000    2.4750    0.0000 C   0  0  0  0  0  0  0  0  0  0  0  0
    0.7145    2.0625    0.0000 C   0  0  0  0  0  0  0  0  0  0  0  0
    0.7145    1.2375    0.0000 C   0  0  0  0  0  0  0  0  0  0  0  0
    1.4289    0.8250    0.0000 C   0  0  0  0  0  0  0  0  0  0  0  0
    1.4289   -0.0000    0.0000 C   0  0  0  0  0  0  0  0  0  0  0  0
    0.7145   -0.4125    0.0000 C   0  0  0  0  0  0  0  0  0  0  0  0
    0.7145   -1.2375    0.0000 O   0  0  0  0  0  0  0  0  0  0  0  0
    1.4289   -1.6500    0.0000 C   0  0  0  0  0  0  0  0  0  0  0  0
   -0.0000   -0.0000    0.0000 C   0  0  0  0  0  0  0  0  0  0  0  0
   -0.0000    0.8250    0.0000 C   0  0  0  0  0  0  0  0  0  0  0  0
    0.8250    3.3000    0.0000 H   0  0  0  0  0  0  0  0  0  0  0  0
   -0.0000    4.1250    0.0000 H   0  0  0  0  0  0  0  0  0  0  0  0
   -0.8250    3.3000    0.0000 H   0  0  0  0  0  0  0  0  0  0  0  0
   -0.7145    2.0625    0.0000 H   0  0  0  0  0  0  0  0  0  0  0  0
    1.4289    2.4750    0.0000 H   0  0  0  0  0  0  0  0  0  0  0  0
    2.1434    1.2375    0.0000 H   0  0  0  0  0  0  0  0  0  0  0  0
    2.1434   -0.4125    0.0000 H   0  0  0  0  0  0  0  0  0  0  0  0
    1.0164   -2.3645    0.0000 H   0  0  0  0  0  0  0  0  0  0  0  0
    2.1434   -2.0625    0.0000 H   0  0  0  0  0  0  0  0  0  0  0  0
    1.8414   -0.9355    0.0000 H   0  0  0  0  0  0  0  0  0  0  0  0
   -0.7145   -0.4125    0.0000 H   0  0  0  0  0  0  0  0  0  0  0  0
   -0.7145    1.2375    0.0000 H   0  0  0  0  0  0  0  0  0  0  0  0
  2  1  1  4  0  0  0
  2  3  2  0  0  0  0
  3  4  1  0  0  0  0
  4  5  4  0  0  0  0
  5  6  4  0  0  0  0
  6  7  4  0  0  0  0
  7  8  1  0  0  0  0
  8  9  1  0  0  0  0
  7 10  4  0  0  0  0
 10 11  4  0  0  0  0
  4 11  4  0  0  0  0
  1 12  1  0  0  0  0
  1 13  1  0  0  0  0
  1 14  1  0  0  0  0
  2 15  1  0  0  0  0
  3 16  1  0  0  0  0
  5 17  1  0  0  0  0
  6 18  1  0  0  0  0
  9 19  1  0  0  0  0
  9 20  1  0  0  0  0
  9 21  1  0  0  0  0
 10 22  1  0  0  0  0
 11 23  1  0  0  0  0
M  END
> <id>
217

> <casrn>
4180-23-8

> <smiles (First)>


> <Molecular weight>
148.20169067382812

> <name>
(E)-anethole

> <Outcome>
0

> <Molecule (RDKit Mol) (InChI Code)>
InChI=1S/C10H12O/c1-3-4-9-5-7-10(11-2)8-6-9/h3-8H,1-2H3

> <reference>
ECHA

> <molecule_form>
A

$$$$

  Mrv1812 01171911372D          

 12 11  0  0  0  0            999 V2000
    0.8220   -1.4340    0.0000 O   0  0  0  0  0  0  0  0  0  0  0  0
    1.2345   -0.7195    0.0000 C   0  0  0  0  0  0  0  0  0  0  0  0
    2.0595   -0.7195    0.0000 C   0  0  0  0  0  0  0  0  0  0  0  0
    2.4720   -1.4340    0.0000 O   0  0  0  0  0  0  0  0  0  0  0  0
    0.8220   -0.0051    0.0000 C   0  0  0  0  0  0  0  0  0  0  0  0
   -0.0030   -0.0051    0.0000 O   0  0  0  0  0  0  0  0  0  0  0  0
    2.7488   -0.2662    0.0000 H   0  0  0  0  0  0  0  0  0  0  0  0
    2.1075    0.1041    0.0000 H   0  0  0  0  0  0  0  0  0  0  0  0
    2.0595   -2.1485    0.0000 H   0  0  0  0  0  0  0  0  0  0  0  0
    1.5113    0.4483    0.0000 H   0  0  0  0  0  0  0  0  0  0  0  0
    0.8700    0.8185    0.0000 H   0  0  0  0  0  0  0  0  0  0  0  0
   -0.4155    0.7094    0.0000 H   0  0  0  0  0  0  0  0  0  0  0  0
  1  2  2  0  0  0  0
  2  3  1  0  0  0  0
  3  4  1  0  0  0  0
  2  5  1  0  0  0  0
  5  6  1  0  0  0  0
  3  7  1  0  0  0  0
  3  8  1  0  0  0  0
  4  9  1  0  0  0  0
  5 10  1  0  0  0  0
  5 11  1  0  0  0  0
  6 12  1  0  0  0  0
M  END
> <id>
991

> <casrn>
96-26-4

> <smiles (First)>


> <Molecular weight>
90.07794189453125

> <name>
1,3-dihydroxypropan-2-one

> <Outcome>
0

> <Molecule (RDKit Mol) (InChI Code)>
InChI=1S/C3H6O3/c4-1-3(6)2-5/h4-5H,1-2H2

> <reference>
ECHA

> <molecule_form>
A

$$$$

  Mrv1812 01171911372D          

 21 20  0  0  0  0            999 V2000
    3.9430   -2.1201    0.0000 C   0  0  0  0  0  0  0  0  0  0  0  0
    3.5305   -1.4056    0.0000 Si  0  0  0  0  0  0  0  0  0  0  0  0
    4.2449   -0.9931    0.0000 C   0  0  0  0  0  0  0  0  0  0  0  0
    2.8160   -1.8181    0.0000 F   0  0  0  0  0  0  0  0  0  0  0  0
    3.1180   -0.6911    0.0000 C   0  0  0  0  0  0  0  0  0  0  0  0
    2.2930   -0.6911    0.0000 C   0  0  0  0  0  0  0  0  0  0  0  0
    1.8805    0.0234    0.0000 C   0  0  0  0  0  0  0  0  0  0  0  0
    1.0555    0.0234    0.0000 C   0  0  0  0  0  0  0  0  0  0  0  0
    0.2305    0.0234    0.0000 N   0  0  0  0  0  0  0  0  0  0  0  0
    3.2285   -2.5326    0.0000 H   0  0  0  0  0  0  0  0  0  0  0  0
    4.3555   -2.8345    0.0000 H   0  0  0  0  0  0  0  0  0  0  0  0
    4.6574   -1.7076    0.0000 H   0  0  0  0  0  0  0  0  0  0  0  0
    5.0629   -0.8854    0.0000 H   0  0  0  0  0  0  0  0  0  0  0  0
    4.4584   -0.1962    0.0000 H   0  0  0  0  0  0  0  0  0  0  0  0
    3.5904   -0.4909    0.0000 H   0  0  0  0  0  0  0  0  0  0  0  0
    2.9537    0.1174    0.0000 H   0  0  0  0  0  0  0  0  0  0  0  0
    2.7055   -1.4056    0.0000 H   0  0  0  0  0  0  0  0  0  0  0  0
    1.4805   -0.8344    0.0000 H   0  0  0  0  0  0  0  0  0  0  0  0
    1.7627   -1.3231    0.0000 H   0  0  0  0  0  0  0  0  0  0  0  0
    2.5697    0.4767    0.0000 H   0  0  0  0  0  0  0  0  0  0  0  0
    1.9284    0.8470    0.0000 H   0  0  0  0  0  0  0  0  0  0  0  0
  1  2  1  0  0  0  0
  2  3  1  0  0  0  0
  2  4  1  0  0  0  0
  2  5  1  0  0  0  0
  5  6  1  0  0  0  0
  6  7  1  0  0  0  0
  7  8  1  0  0  0  0
  8  9  3  0  0  0  0
  1 10  1  0  0  0  0
  1 11  1  0  0  0  0
  1 12  1  0  0  0  0
  3 13  1  0  0  0  0
  3 14  1  0  0  0  0
  3 15  1  0  0  0  0
  5 16  1  0  0  0  0
  5 17  1  0  0  0  0
  6 18  1  0  0  0  0
  6 19  1  0  0  0  0
  7 20  1  0  0  0  0
  7 21  1  0  0  0  0
M  END
> <id>
4183; 4182

> <casrn>
1639345-42-8

> <smiles (First)>


> <Molecular weight>
145.25009155273438

> <name>
unnamed [1639345-42-8]

> <Outcome>
1

> <Molecule (RDKit Mol) (InChI Code)>
InChI=1S/C6H12FNSi/c1-9(2,7)6-4-3-5-8/h3-4,6H2,1-2H3

> <reference>
ECHA

> <molecule_form>
V

$$$$

  Mrv1812 01171911372D          

 56 55  0  0  0  0            999 V2000
    7.2336    5.0013    0.0000 C   0  0  0  0  0  0  0  0  0  0  0  0
    7.9480    5.4138    0.0000 C   0  0  0  0  0  0  0  0  0  0  0  0
    8.6625    5.0013    0.0000 C   0  0  0  0  0  0  0  0  0  0  0  0
    9.3770    5.4138    0.0000 C   0  0  0  0  0  0  0  0  0  0  0  0
   10.0914    5.0013    0.0000 C   0  0  0  0  0  0  0  0  0  0  0  0
   10.8059    5.4138    0.0000 C   0  0  0  0  0  0  0  0  0  0  0  0
   11.5204    5.0013    0.0000 C   0  0  0  0  0  0  0  0  0  0  0  0
   12.2349    5.4138    0.0000 C   0  0  0  0  0  0  0  0  0  0  0  0
   12.9493    5.0013    0.0000 C   0  0  0  0  0  0  0  0  0  0  0  0
   13.6638    5.4138    0.0000 C   0  0  0  0  0  0  0  0  0  0  0  0
   14.3783    5.0013    0.0000 C   0  0  0  0  0  0  0  0  0  0  0  0
   15.0927    5.4138    0.0000 C   0  0  0  0  0  0  0  0  0  0  0  0
   15.8072    5.0013    0.0000 C   0  0  0  0  0  0  0  0  0  0  0  0
   16.5217    5.4138    0.0000 C   0  0  0  0  0  0  0  0  0  0  0  0
   17.2362    5.0013    0.0000 C   0  0  0  0  0  0  0  0  0  0  0  0
   17.9506    5.4138    0.0000 C   0  0  0  0  0  0  0  0  0  0  0  0
   18.6651    5.0013    0.0000 C   0  0  0  0  0  0  0  0  0  0  0  0
   19.3796    5.4138    0.0000 C   0  0  0  0  0  0  0  0  0  0  0  0
    6.8211    5.7158    0.0000 H   0  0  0  0  0  0  0  0  0  0  0  0
    6.5191    4.5888    0.0000 H   0  0  0  0  0  0  0  0  0  0  0  0
    7.6461    4.2868    0.0000 H   0  0  0  0  0  0  0  0  0  0  0  0
    8.3183    6.1510    0.0000 H   0  0  0  0  0  0  0  0  0  0  0  0
    7.5778    6.1510    0.0000 H   0  0  0  0  0  0  0  0  0  0  0  0
    8.2922    4.2641    0.0000 H   0  0  0  0  0  0  0  0  0  0  0  0
    9.0328    4.2641    0.0000 H   0  0  0  0  0  0  0  0  0  0  0  0
    9.7472    6.1510    0.0000 H   0  0  0  0  0  0  0  0  0  0  0  0
    9.0067    6.1510    0.0000 H   0  0  0  0  0  0  0  0  0  0  0  0
    9.7212    4.2641    0.0000 H   0  0  0  0  0  0  0  0  0  0  0  0
   10.4617    4.2641    0.0000 H   0  0  0  0  0  0  0  0  0  0  0  0
   11.1762    6.1510    0.0000 H   0  0  0  0  0  0  0  0  0  0  0  0
   10.4357    6.1510    0.0000 H   0  0  0  0  0  0  0  0  0  0  0  0
   11.1501    4.2641    0.0000 H   0  0  0  0  0  0  0  0  0  0  0  0
   11.8906    4.2641    0.0000 H   0  0  0  0  0  0  0  0  0  0  0  0
   12.6051    6.1510    0.0000 H   0  0  0  0  0  0  0  0  0  0  0  0
   11.8646    6.1510    0.0000 H   0  0  0  0  0  0  0  0  0  0  0  0
   12.5791    4.2641    0.0000 H   0  0  0  0  0  0  0  0  0  0  0  0
   13.3196    4.2641    0.0000 H   0  0  0  0  0  0  0  0  0  0  0  0
   14.0341    6.1510    0.0000 H   0  0  0  0  0  0  0  0  0  0  0  0
   13.2935    6.1510    0.0000 H   0  0  0  0  0  0  0  0  0  0  0  0
   14.0080    4.2641    0.0000 H   0  0  0  0  0  0  0  0  0  0  0  0
   14.7485    4.2641    0.0000 H   0  0  0  0  0  0  0  0  0  0  0  0
   15.4630    6.1510    0.0000 H   0  0  0  0  0  0  0  0  0  0  0  0
   14.7225    6.1510    0.0000 H   0  0  0  0  0  0  0  0  0  0  0  0
   15.4370    4.2641    0.0000 H   0  0  0  0  0  0  0  0  0  0  0  0
   16.1775    4.2641    0.0000 H   0  0  0  0  0  0  0  0  0  0  0  0
   16.8919    6.1510    0.0000 H   0  0  0  0  0  0  0  0  0  0  0  0
   16.1514    6.1510    0.0000 H   0  0  0  0  0  0  0  0  0  0  0  0
   16.8659    4.2641    0.0000 H   0  0  0  0  0  0  0  0  0  0  0  0
   17.6064    4.2641    0.0000 H   0  0  0  0  0  0  0  0  0  0  0  0
   18.3209    6.1510    0.0000 H   0  0  0  0  0  0  0  0  0  0  0  0
   17.5804    6.1510    0.0000 H   0  0  0  0  0  0  0  0  0  0  0  0
   18.2948    4.2641    0.0000 H   0  0  0  0  0  0  0  0  0  0  0  0
   19.0354    4.2641    0.0000 H   0  0  0  0  0  0  0  0  0  0  0  0
   19.7921    4.6993    0.0000 H   0  0  0  0  0  0  0  0  0  0  0  0
   20.0940    5.8263    0.0000 H   0  0  0  0  0  0  0  0  0  0  0  0
   18.9671    6.1283    0.0000 H   0  0  0  0  0  0  0  0  0  0  0  0
  1  2  1  0  0  0  0
  2  3  1  0  0  0  0
  3  4  1  0  0  0  0
  4  5  1  0  0  0  0
  5  6  1  0  0  0  0
  6  7  1  0  0  0  0
  7  8  1  0  0  0  0
  8  9  1  0  0  0  0
  9 10  1  0  0  0  0
 10 11  1  0  0  0  0
 11 12  1  0  0  0  0
 12 13  1  0  0  0  0
 13 14  1  0  0  0  0
 14 15  1  0  0  0  0
 15 16  1  0  0  0  0
 16 17  1  0  0  0  0
 17 18  1  0  0  0  0
  1 19  1  0  0  0  0
  1 20  1  0  0  0  0
  1 21  1  0  0  0  0
  2 22  1  0  0  0  0
  2 23  1  0  0  0  0
  3 24  1  0  0  0  0
  3 25  1  0  0  0  0
  4 26  1  0  0  0  0
  4 27  1  0  0  0  0
  5 28  1  0  0  0  0
  5 29  1  0  0  0  0
  6 30  1  0  0  0  0
  6 31  1  0  0  0  0
  7 32  1  0  0  0  0
  7 33  1  0  0  0  0
  8 34  1  0  0  0  0
  8 35  1  0  0  0  0
  9 36  1  0  0  0  0
  9 37  1  0  0  0  0
 10 38  1  0  0  0  0
 10 39  1  0  0  0  0
 11 40  1  0  0  0  0
 11 41  1  0  0  0  0
 12 42  1  0  0  0  0
 12 43  1  0  0  0  0
 13 44  1  0  0  0  0
 13 45  1  0  0  0  0
 14 46  1  0  0  0  0
 14 47  1  0  0  0  0
 15 48  1  0  0  0  0
 15 49  1  0  0  0  0
 16 50  1  0  0  0  0
 16 51  1  0  0  0  0
 17 52  1  0  0  0  0
 17 53  1  0  0  0  0
 18 54  1  0  0  0  0
 18 55  1  0  0  0  0
 18 56  1  0  0  0  0
M  END
> <id>
3624

> <casrn>
593-45-3

> <smiles (First)>


> <Molecular weight>
254.49432373046875

> <name>
octadecane

> <Outcome>
0

> <Molecule (RDKit Mol) (InChI Code)>
InChI=1S/C18H38/c1-3-5-7-9-11-13-15-17-18-16-14-12-10-8-6-4-2/h3-18H2,1-2H3

> <reference>
ECHA

> <molecule_form>
A

$$$$

  Mrv1812 01171911372D          

 10  9  0  0  0  0            999 V2000
    0.8214    1.4289    0.0000 C   0  0  0  0  0  0  0  0  0  0  0  0
    1.2339    0.7145    0.0000 C   0  0  0  0  0  0  0  0  0  0  0  0
    0.8214   -0.0000    0.0000 C   0  0  0  0  0  0  0  0  0  0  0  0
    1.2339   -0.7145    0.0000 O   0  0  0  0  0  0  0  0  0  0  0  0
   -0.0036   -0.0000    0.0000 Cl  0  0  0  0  0  0  0  0  0  0  0  0
    1.5359    1.8414    0.0000 H   0  0  0  0  0  0  0  0  0  0  0  0
    0.4089    2.1434    0.0000 H   0  0  0  0  0  0  0  0  0  0  0  0
    0.1070    1.0164    0.0000 H   0  0  0  0  0  0  0  0  0  0  0  0
    1.9712    0.3442    0.0000 H   0  0  0  0  0  0  0  0  0  0  0  0
    1.9712    1.0847    0.0000 H   0  0  0  0  0  0  0  0  0  0  0  0
  1  2  1  0  0  0  0
  2  3  1  0  0  0  0
  3  4  2  0  0  0  0
  3  5  1  0  0  0  0
  1  6  1  0  0  0  0
  1  7  1  0  0  0  0
  1  8  1  0  0  0  0
  2  9  1  0  0  0  0
  2 10  1  0  0  0  0
M  END
> <id>
3808

> <casrn>
79-03-8

> <smiles (First)>


> <Molecular weight>
92.52420043945312

> <name>
propanoyl chloride

> <Outcome>
1

> <Molecule (RDKit Mol) (InChI Code)>
InChI=1S/C3H5ClO/c1-2-3(4)5/h2H2,1H3

> <reference>
ECHA

> <molecule_form>
V

$$$$

  Mrv1812 01171911372D          

 68 67  0  0  0  0            999 V2000
    8.3862    5.7370    0.0000 C   0  0  0  0  0  0  0  0  0  0  0  0
    9.1007    6.1495    0.0000 C   0  0  0  0  0  0  0  0  0  0  0  0
    9.8151    5.7370    0.0000 C   0  0  0  0  0  0  0  0  0  0  0  0
   10.5296    6.1495    0.0000 C   0  0  0  0  0  0  0  0  0  0  0  0
   11.2441    5.7370    0.0000 C   0  0  0  0  0  0  0  0  0  0  0  0
   11.2441    4.9120    0.0000 C   0  0  0  0  0  0  0  0  0  0  0  0
   11.9585    4.4995    0.0000 C   0  0  0  0  0  0  0  0  0  0  0  0
   11.9585    6.1495    0.0000 C   0  0  0  0  0  0  0  0  0  0  0  0
   12.6730    5.7370    0.0000 O   0  0  0  0  0  0  0  0  0  0  0  0
   13.3875    6.1495    0.0000 C   0  0  0  0  0  0  0  0  0  0  0  0
   13.3875    6.9745    0.0000 O   0  0  0  0  0  0  0  0  0  0  0  0
   14.1020    5.7370    0.0000 C   0  0  0  0  0  0  0  0  0  0  0  0
   14.8164    6.1495    0.0000 C   0  0  0  0  0  0  0  0  0  0  0  0
   15.5309    5.7370    0.0000 C   0  0  0  0  0  0  0  0  0  0  0  0
   16.2454    6.1495    0.0000 C   0  0  0  0  0  0  0  0  0  0  0  0
   16.9598    5.7370    0.0000 C   0  0  0  0  0  0  0  0  0  0  0  0
   16.9598    4.9120    0.0000 O   0  0  0  0  0  0  0  0  0  0  0  0
   17.6743    6.1495    0.0000 O   0  0  0  0  0  0  0  0  0  0  0  0
   18.3888    5.7370    0.0000 C   0  0  0  0  0  0  0  0  0  0  0  0
   19.1033    6.1495    0.0000 C   0  0  0  0  0  0  0  0  0  0  0  0
   19.1033    6.9745    0.0000 C   0  0  0  0  0  0  0  0  0  0  0  0
   19.8177    7.3870    0.0000 C   0  0  0  0  0  0  0  0  0  0  0  0
   19.8177    5.7370    0.0000 C   0  0  0  0  0  0  0  0  0  0  0  0
   20.5322    6.1495    0.0000 C   0  0  0  0  0  0  0  0  0  0  0  0
   21.2467    5.7370    0.0000 C   0  0  0  0  0  0  0  0  0  0  0  0
   21.9611    6.1495    0.0000 C   0  0  0  0  0  0  0  0  0  0  0  0
    7.9737    6.4515    0.0000 H   0  0  0  0  0  0  0  0  0  0  0  0
    7.6717    5.3245    0.0000 H   0  0  0  0  0  0  0  0  0  0  0  0
    8.7987    5.0225    0.0000 H   0  0  0  0  0  0  0  0  0  0  0  0
    9.4709    6.8867    0.0000 H   0  0  0  0  0  0  0  0  0  0  0  0
    8.7304    6.8867    0.0000 H   0  0  0  0  0  0  0  0  0  0  0  0
    9.4449    4.9997    0.0000 H   0  0  0  0  0  0  0  0  0  0  0  0
   10.1854    4.9997    0.0000 H   0  0  0  0  0  0  0  0  0  0  0  0
   10.8999    6.8867    0.0000 H   0  0  0  0  0  0  0  0  0  0  0  0
   10.1593    6.8867    0.0000 H   0  0  0  0  0  0  0  0  0  0  0  0
   10.5296    5.3245    0.0000 H   0  0  0  0  0  0  0  0  0  0  0  0
   10.6121    4.3817    0.0000 H   0  0  0  0  0  0  0  0  0  0  0  0
   11.1008    4.0995    0.0000 H   0  0  0  0  0  0  0  0  0  0  0  0
   12.1195    3.6903    0.0000 H   0  0  0  0  0  0  0  0  0  0  0  0
   12.7828    4.4635    0.0000 H   0  0  0  0  0  0  0  0  0  0  0  0
   12.1894    5.2915    0.0000 H   0  0  0  0  0  0  0  0  0  0  0  0
   12.3288    6.8867    0.0000 H   0  0  0  0  0  0  0  0  0  0  0  0
   11.5883    6.8867    0.0000 H   0  0  0  0  0  0  0  0  0  0  0  0
   13.7317    4.9997    0.0000 H   0  0  0  0  0  0  0  0  0  0  0  0
   14.4722    4.9997    0.0000 H   0  0  0  0  0  0  0  0  0  0  0  0
   15.1867    6.8867    0.0000 H   0  0  0  0  0  0  0  0  0  0  0  0
   14.4462    6.8867    0.0000 H   0  0  0  0  0  0  0  0  0  0  0  0
   15.1606    4.9997    0.0000 H   0  0  0  0  0  0  0  0  0  0  0  0
   15.9012    4.9997    0.0000 H   0  0  0  0  0  0  0  0  0  0  0  0
   16.6156    6.8867    0.0000 H   0  0  0  0  0  0  0  0  0  0  0  0
   15.8751    6.8867    0.0000 H   0  0  0  0  0  0  0  0  0  0  0  0
   18.0185    4.9997    0.0000 H   0  0  0  0  0  0  0  0  0  0  0  0
   18.7590    4.9997    0.0000 H   0  0  0  0  0  0  0  0  0  0  0  0
   18.3888    6.5620    0.0000 H   0  0  0  0  0  0  0  0  0  0  0  0
   18.9600    7.7869    0.0000 H   0  0  0  0  0  0  0  0  0  0  0  0
   18.4713    7.5048    0.0000 H   0  0  0  0  0  0  0  0  0  0  0  0
   20.0486    6.5949    0.0000 H   0  0  0  0  0  0  0  0  0  0  0  0
   20.6419    7.4230    0.0000 H   0  0  0  0  0  0  0  0  0  0  0  0
   19.9787    8.1961    0.0000 H   0  0  0  0  0  0  0  0  0  0  0  0
   19.4475    4.9997    0.0000 H   0  0  0  0  0  0  0  0  0  0  0  0
   20.1880    4.9997    0.0000 H   0  0  0  0  0  0  0  0  0  0  0  0
   21.0209    6.8142    0.0000 H   0  0  0  0  0  0  0  0  0  0  0  0
   20.5322    5.3245    0.0000 H   0  0  0  0  0  0  0  0  0  0  0  0
   21.3899    4.9245    0.0000 H   0  0  0  0  0  0  0  0  0  0  0  0
   21.8786    5.2067    0.0000 H   0  0  0  0  0  0  0  0  0  0  0  0
   22.7424    5.8843    0.0000 H   0  0  0  0  0  0  0  0  0  0  0  0
   22.4044    6.8453    0.0000 H   0  0  0  0  0  0  0  0  0  0  0  0
   21.3906    6.7454    0.0000 H   0  0  0  0  0  0  0  0  0  0  0  0
  1  2  1  0  0  0  0
  2  3  1  0  0  0  0
  3  4  1  0  0  0  0
  4  5  1  0  0  0  0
  5  6  1  0  0  0  0
  6  7  1  0  0  0  0
  5  8  1  0  0  0  0
  8  9  1  0  0  0  0
  9 10  1  0  0  0  0
 10 11  2  0  0  0  0
 10 12  1  0  0  0  0
 12 13  1  0  0  0  0
 13 14  1  0  0  0  0
 14 15  1  0  0  0  0
 15 16  1  0  0  0  0
 16 17  2  0  0  0  0
 16 18  1  0  0  0  0
 18 19  1  0  0  0  0
 19 20  1  0  0  0  0
 20 21  1  0  0  0  0
 21 22  1  0  0  0  0
 20 23  1  0  0  0  0
 23 24  1  0  0  0  0
 24 25  1  0  0  0  0
 25 26  1  0  0  0  0
  1 27  1  0  0  0  0
  1 28  1  0  0  0  0
  1 29  1  0  0  0  0
  2 30  1  0  0  0  0
  2 31  1  0  0  0  0
  3 32  1  0  0  0  0
  3 33  1  0  0  0  0
  4 34  1  0  0  0  0
  4 35  1  0  0  0  0
  5 36  1  0  0  0  0
  6 37  1  0  0  0  0
  6 38  1  0  0  0  0
  7 39  1  0  0  0  0
  7 40  1  0  0  0  0
  7 41  1  0  0  0  0
  8 42  1  0  0  0  0
  8 43  1  0  0  0  0
 12 44  1  0  0  0  0
 12 45  1  0  0  0  0
 13 46  1  0  0  0  0
 13 47  1  0  0  0  0
 14 48  1  0  0  0  0
 14 49  1  0  0  0  0
 15 50  1  0  0  0  0
 15 51  1  0  0  0  0
 19 52  1  0  0  0  0
 19 53  1  0  0  0  0
 20 54  1  0  0  0  0
 21 55  1  0  0  0  0
 21 56  1  0  0  0  0
 22 57  1  0  0  0  0
 22 58  1  0  0  0  0
 22 59  1  0  0  0  0
 23 60  1  0  0  0  0
 23 61  1  0  0  0  0
 24 62  1  0  0  0  0
 24 63  1  0  0  0  0
 25 64  1  0  0  0  0
 25 65  1  0  0  0  0
 26 66  1  0  0  0  0
 26 67  1  0  0  0  0
 26 68  1  0  0  0  0
M  END
> <id>
1075

> <casrn>
103-23-1

> <smiles (First)>


> <Molecular weight>
370.5664978027344

> <name>
1,6-bis(2-ethylhexyl) hexanedioate

> <Outcome>
0

> <Molecule (RDKit Mol) (InChI Code)>
InChI=1S/C22H42O4/c1-5-9-13-19(7-3)17-25-21(23)15-11-12-16-22(24)26-18-20(8-4)14-10-6-2/h19-20H,5-18H2,1-4H3

> <reference>
ECHA

> <molecule_form>
A

$$$$

  Mrv1812 01171911372D          

 18 17  0  0  0  0            999 V2000
    1.2375   -0.7145    0.0000 F   0  0  0  0  0  0  0  0  0  0  0  0
    0.8250    0.0000    0.0000 C   0  0  0  0  0  0  0  0  0  0  0  0
   -0.0000    0.0000    0.0000 C   0  0  0  0  0  0  0  0  0  0  0  0
   -0.4125    0.7145    0.0000 F   0  0  0  0  0  0  0  0  0  0  0  0
   -0.4125   -0.7145    0.0000 C   0  0  0  0  0  0  0  0  0  0  0  0
    0.3020   -1.1270    0.0000 F   0  0  0  0  0  0  0  0  0  0  0  0
   -1.1270   -0.3020    0.0000 C   0  0  0  0  0  0  0  0  0  0  0  0
   -1.8414    0.1105    0.0000 F   0  0  0  0  0  0  0  0  0  0  0  0
   -1.5395   -1.0164    0.0000 F   0  0  0  0  0  0  0  0  0  0  0  0
   -0.7145    0.4125    0.0000 F   0  0  0  0  0  0  0  0  0  0  0  0
   -0.8250   -1.4289    0.0000 C   0  0  0  0  0  0  0  0  0  0  0  0
   -1.2375   -2.1434    0.0000 F   0  0  0  0  0  0  0  0  0  0  0  0
   -1.6455   -1.5152    0.0000 F   0  0  0  0  0  0  0  0  0  0  0  0
   -0.1105   -1.8414    0.0000 F   0  0  0  0  0  0  0  0  0  0  0  0
    1.2375    0.7145    0.0000 C   0  0  0  0  0  0  0  0  0  0  0  0
    1.6500    1.4289    0.0000 F   0  0  0  0  0  0  0  0  0  0  0  0
    1.9520    0.3020    0.0000 F   0  0  0  0  0  0  0  0  0  0  0  0
    0.5230    1.1270    0.0000 F   0  0  0  0  0  0  0  0  0  0  0  0
  2  1  1  4  0  0  0
  2  3  2  0  0  0  0
  3  4  1  0  0  0  0
  3  5  1  0  0  0  0
  5  6  1  0  0  0  0
  5  7  1  0  0  0  0
  7  8  1  0  0  0  0
  7  9  1  0  0  0  0
  7 10  1  0  0  0  0
  5 11  1  0  0  0  0
 11 12  1  0  0  0  0
 11 13  1  0  0  0  0
 11 14  1  0  0  0  0
  2 15  1  0  0  0  0
 15 16  1  0  0  0  0
 15 17  1  0  0  0  0
 15 18  1  0  0  0  0
M  END
> <id>
4195

> <casrn>
3709-71-5

> <smiles (First)>


> <Molecular weight>
300.0450439453125

> <name>
unnamed [3709-71-5]

> <Outcome>
0

> <Molecule (RDKit Mol) (InChI Code)>
InChI=1S/C6F12/c7-1(2(8)4(10,11)12)3(9,5(13,14)15)6(16,17)18

> <reference>
ECHA

> <molecule_form>
V

$$$$

  Mrv1812 01171911372D          

 16 16  0  0  0  0            999 V2000
    1.4749   -0.3613    0.0000 C   0  0  0  0  0  0  0  0  0  0  0  0
    0.9900    0.3061    0.0000 N   0  0  0  0  0  0  0  0  0  0  0  0
    0.1650    0.3061    0.0000 C   0  0  0  0  0  0  0  0  0  0  0  0
   -0.0900    1.0907    0.0000 C   0  0  0  0  0  0  0  0  0  0  0  0
    0.5775    1.5756    0.0000 C   0  0  0  0  0  0  0  0  0  0  0  0
    1.2449    1.0907    0.0000 C   0  0  0  0  0  0  0  0  0  0  0  0
    2.0295    1.3457    0.0000 O   0  0  0  0  0  0  0  0  0  0  0  0
    0.8074   -0.8463    0.0000 H   0  0  0  0  0  0  0  0  0  0  0  0
    1.9598   -1.0288    0.0000 H   0  0  0  0  0  0  0  0  0  0  0  0
    2.1423    0.1236    0.0000 H   0  0  0  0  0  0  0  0  0  0  0  0
   -0.5765   -0.0556    0.0000 H   0  0  0  0  0  0  0  0  0  0  0  0
    0.0501   -0.5109    0.0000 H   0  0  0  0  0  0  0  0  0  0  0  0
   -0.6631    1.6842    0.0000 H   0  0  0  0  0  0  0  0  0  0  0  0
   -0.9024    0.9475    0.0000 H   0  0  0  0  0  0  0  0  0  0  0  0
    0.9648    2.3041    0.0000 H   0  0  0  0  0  0  0  0  0  0  0  0
    0.1901    2.3041    0.0000 H   0  0  0  0  0  0  0  0  0  0  0  0
  1  2  1  0  0  0  0
  2  3  1  0  0  0  0
  3  4  1  0  0  0  0
  4  5  1  0  0  0  0
  5  6  1  0  0  0  0
  2  6  1  0  0  0  0
  6  7  2  0  0  0  0
  1  8  1  0  0  0  0
  1  9  1  0  0  0  0
  1 10  1  0  0  0  0
  3 11  1  0  0  0  0
  3 12  1  0  0  0  0
  4 13  1  0  0  0  0
  4 14  1  0  0  0  0
  5 15  1  0  0  0  0
  5 16  1  0  0  0  0
M  END
> <id>
1203

> <casrn>
872-50-4

> <smiles (First)>


> <Molecular weight>
99.13105773925781

> <name>
1-methylpyrrolidin-2-one

> <Outcome>
0

> <Molecule (RDKit Mol) (InChI Code)>
InChI=1S/C5H9NO/c1-6-4-2-3-5(6)7/h2-4H2,1H3

> <reference>
ECHA

> <molecule_form>
A

$$$$

  Mrv1812 01171911372D          

 26 25  0  0  0  0            999 V2000
    0.1093   -5.3619    0.0000 C   0  0  0  0  0  0  0  0  0  0  0  0
    0.8238   -4.9494    0.0000 C   0  0  0  0  0  0  0  0  0  0  0  0
    0.8238   -4.1244    0.0000 C   0  0  0  0  0  0  0  0  0  0  0  0
    1.6488   -4.1244    0.0000 F   0  0  0  0  0  0  0  0  0  0  0  0
   -0.0012   -4.1244    0.0000 F   0  0  0  0  0  0  0  0  0  0  0  0
    0.8238   -3.2994    0.0000 C   0  0  0  0  0  0  0  0  0  0  0  0
    1.6488   -3.2994    0.0000 F   0  0  0  0  0  0  0  0  0  0  0  0
   -0.0012   -3.2994    0.0000 F   0  0  0  0  0  0  0  0  0  0  0  0
    0.8238   -2.4744    0.0000 C   0  0  0  0  0  0  0  0  0  0  0  0
    1.6488   -2.4744    0.0000 F   0  0  0  0  0  0  0  0  0  0  0  0
   -0.0012   -2.4744    0.0000 F   0  0  0  0  0  0  0  0  0  0  0  0
    0.8238   -1.6494    0.0000 C   0  0  0  0  0  0  0  0  0  0  0  0
    1.6488   -1.6494    0.0000 F   0  0  0  0  0  0  0  0  0  0  0  0
   -0.0012   -1.6494    0.0000 F   0  0  0  0  0  0  0  0  0  0  0  0
    0.8238   -0.8244    0.0000 C   0  0  0  0  0  0  0  0  0  0  0  0
    1.6488   -0.8244    0.0000 F   0  0  0  0  0  0  0  0  0  0  0  0
   -0.0012   -0.8244    0.0000 F   0  0  0  0  0  0  0  0  0  0  0  0
    0.8238    0.0006    0.0000 C   0  0  0  0  0  0  0  0  0  0  0  0
    0.8238    0.8256    0.0000 F   0  0  0  0  0  0  0  0  0  0  0  0
    1.6488    0.0006    0.0000 F   0  0  0  0  0  0  0  0  0  0  0  0
   -0.0012    0.0006    0.0000 F   0  0  0  0  0  0  0  0  0  0  0  0
   -0.3032   -4.6474    0.0000 H   0  0  0  0  0  0  0  0  0  0  0  0
   -0.6051   -5.7744    0.0000 H   0  0  0  0  0  0  0  0  0  0  0  0
    0.5218   -6.0763    0.0000 H   0  0  0  0  0  0  0  0  0  0  0  0
    1.2772   -5.6386    0.0000 H   0  0  0  0  0  0  0  0  0  0  0  0
    1.6474   -4.9973    0.0000 H   0  0  0  0  0  0  0  0  0  0  0  0
  1  2  1  0  0  0  0
  2  3  1  0  0  0  0
  3  4  1  0  0  0  0
  3  5  1  0  0  0  0
  3  6  1  0  0  0  0
  6  7  1  0  0  0  0
  6  8  1  0  0  0  0
  6  9  1  0  0  0  0
  9 10  1  0  0  0  0
  9 11  1  0  0  0  0
  9 12  1  0  0  0  0
 12 13  1  0  0  0  0
 12 14  1  0  0  0  0
 12 15  1  0  0  0  0
 15 16  1  0  0  0  0
 15 17  1  0  0  0  0
 15 18  1  0  0  0  0
 18 19  1  0  0  0  0
 18 20  1  0  0  0  0
 18 21  1  0  0  0  0
  1 22  1  0  0  0  0
  1 23  1  0  0  0  0
  1 24  1  0  0  0  0
  2 25  1  0  0  0  0
  2 26  1  0  0  0  0
M  END
> <id>
313

> <casrn>
80793-17-5

> <smiles (First)>


> <Molecular weight>
348.10455322265625

> <name>
-

> <Outcome>
0

> <Molecule (RDKit Mol) (InChI Code)>
InChI=1S/C8H5F13/c1-2-3(9,10)4(11,12)5(13,14)6(15,16)7(17,18)8(19,20)21/h2H2,1H3

> <reference>
ECHA

> <molecule_form>
V

$$$$

  Mrv1812 01171911372D          

 11 10  0  0  0  0            999 V2000
    2.0625   -0.7145    0.0000 C   0  0  0  0  0  0  0  0  0  0  0  0
    1.2375   -0.7145    0.0000 C   0  0  0  0  0  0  0  0  0  0  0  0
    0.8250   -1.4289    0.0000 C   0  0  0  0  0  0  0  0  0  0  0  0
    0.8250    0.0000    0.0000 C   0  0  0  0  0  0  0  0  0  0  0  0
   -0.0000    0.0000    0.0000 O   0  0  0  0  0  0  0  0  0  0  0  0
    2.4750   -1.4289    0.0000 H   0  0  0  0  0  0  0  0  0  0  0  0
    2.4750    0.0000    0.0000 H   0  0  0  0  0  0  0  0  0  0  0  0
    0.1105   -1.0164    0.0000 H   0  0  0  0  0  0  0  0  0  0  0  0
    0.4125   -2.1434    0.0000 H   0  0  0  0  0  0  0  0  0  0  0  0
    1.5395   -1.8414    0.0000 H   0  0  0  0  0  0  0  0  0  0  0  0
    1.2375    0.7145    0.0000 H   0  0  0  0  0  0  0  0  0  0  0  0
  1  2  2  0  0  0  0
  2  3  1  0  0  0  0
  2  4  1  0  0  0  0
  4  5  2  0  0  0  0
  1  6  1  0  0  0  0
  1  7  1  0  0  0  0
  3  8  1  0  0  0  0
  3  9  1  0  0  0  0
  3 10  1  0  0  0  0
  4 11  1  0  0  0  0
M  END
> <id>
1651

> <casrn>
78-85-3

> <smiles (First)>


> <Molecular weight>
70.08984375

> <name>
2-methylprop-2-enal

> <Outcome>
1

> <Molecule (RDKit Mol) (InChI Code)>
InChI=1S/C4H6O/c1-4(2)3-5/h3H,1H2,2H3

> <reference>
ECHA

> <molecule_form>
V

$$$$

  Mrv1812 01171911372D          

 40 43  0  0  0  0            999 V2000
    4.4658   -1.1698    0.0000 C   0  0  0  0  0  0  0  0  0  0  0  0
    4.4658   -1.9948    0.0000 C   0  0  0  0  0  0  0  0  0  0  0  0
    3.7513   -2.4073    0.0000 O   0  0  0  0  0  0  0  0  0  0  0  0
    3.7513   -3.2323    0.0000 C   0  0  0  0  0  0  0  0  0  0  0  0
    4.4658   -3.6448    0.0000 N   0  0  0  0  0  0  0  0  0  0  0  0
    4.4658   -4.4698    0.0000 C   0  0  0  0  0  0  0  0  0  0  0  0
    5.1803   -4.8823    0.0000 F   0  0  0  0  0  0  0  0  0  0  0  0
    3.7513   -4.8823    0.0000 C   0  0  0  0  0  0  0  0  0  0  0  0
    3.0369   -4.4698    0.0000 C   0  0  0  0  0  0  0  0  0  0  0  0
    2.2523   -4.7247    0.0000 N   0  0  0  0  0  0  0  0  0  0  0  0
    1.7673   -4.0573    0.0000 C   0  0  0  0  0  0  0  0  0  0  0  0
    0.9423   -4.0573    0.0000 S   0  0  0  0  0  0  0  0  0  0  0  0
    0.5298   -3.3428    0.0000 S   0  0  0  0  0  0  0  0  0  0  0  0
   -0.2952   -3.3428    0.0000 C   0  0  0  0  0  0  0  0  0  0  0  0
   -0.7801   -4.0103    0.0000 N   0  0  0  0  0  0  0  0  0  0  0  0
   -1.5647   -3.7553    0.0000 C   0  0  0  0  0  0  0  0  0  0  0  0
   -2.2792   -4.1678    0.0000 C   0  0  0  0  0  0  0  0  0  0  0  0
   -2.9937   -3.7553    0.0000 C   0  0  0  0  0  0  0  0  0  0  0  0
   -3.7081   -4.1678    0.0000 F   0  0  0  0  0  0  0  0  0  0  0  0
   -2.9937   -2.9303    0.0000 N   0  0  0  0  0  0  0  0  0  0  0  0
   -2.2792   -2.5178    0.0000 C   0  0  0  0  0  0  0  0  0  0  0  0
   -2.2792   -1.6928    0.0000 O   0  0  0  0  0  0  0  0  0  0  0  0
   -2.9937   -1.2803    0.0000 C   0  0  0  0  0  0  0  0  0  0  0  0
   -3.7081   -1.6928    0.0000 C   0  0  0  0  0  0  0  0  0  0  0  0
   -1.5647   -2.9303    0.0000 N   0  0  0  0  0  0  0  0  0  0  0  0
   -0.7801   -2.6754    0.0000 N   0  0  0  0  0  0  0  0  0  0  0  0
    2.2523   -3.3899    0.0000 N   0  0  0  0  0  0  0  0  0  0  0  0
    3.0369   -3.6448    0.0000 N   0  0  0  0  0  0  0  0  0  0  0  0
    5.2908   -1.1698    0.0000 H   0  0  0  0  0  0  0  0  0  0  0  0
    4.4658   -0.3448    0.0000 H   0  0  0  0  0  0  0  0  0  0  0  0
    3.6408   -1.1698    0.0000 H   0  0  0  0  0  0  0  0  0  0  0  0
    4.9192   -2.6841    0.0000 H   0  0  0  0  0  0  0  0  0  0  0  0
    5.2894   -2.0428    0.0000 H   0  0  0  0  0  0  0  0  0  0  0  0
    3.7513   -5.7073    0.0000 H   0  0  0  0  0  0  0  0  0  0  0  0
   -2.2792   -4.9928    0.0000 H   0  0  0  0  0  0  0  0  0  0  0  0
   -2.6234   -0.5431    0.0000 H   0  0  0  0  0  0  0  0  0  0  0  0
   -3.3639   -0.5431    0.0000 H   0  0  0  0  0  0  0  0  0  0  0  0
   -4.1206   -0.9784    0.0000 H   0  0  0  0  0  0  0  0  0  0  0  0
   -4.4226   -2.1053    0.0000 H   0  0  0  0  0  0  0  0  0  0  0  0
   -3.2956   -2.4073    0.0000 H   0  0  0  0  0  0  0  0  0  0  0  0
  1  2  1  0  0  0  0
  2  3  1  0  0  0  0
  3  4  1  0  0  0  0
  4  5  4  0  0  0  0
  5  6  4  0  0  0  0
  6  7  1  0  0  0  0
  6  8  4  0  0  0  0
  8  9  4  0  0  0  0
  9 10  4  0  0  0  0
 10 11  4  0  0  0  0
 11 12  1  0  0  0  0
 12 13  1  0  0  0  0
 13 14  1  0  0  0  0
 14 15  4  0  0  0  0
 15 16  4  0  0  0  0
 16 17  4  0  0  0  0
 17 18  4  0  0  0  0
 18 19  1  0  0  0  0
 18 20  4  0  0  0  0
 20 21  4  0  0  0  0
 21 22  1  0  0  0  0
 22 23  1  0  0  0  0
 23 24  1  0  0  0  0
 21 25  4  0  0  0  0
 16 25  4  0  0  0  0
 25 26  4  0  0  0  0
 14 26  4  0  0  0  0
 11 27  4  0  0  0  0
 27 28  4  0  0  0  0
  4 28  4  0  0  0  0
  9 28  4  0  0  0  0
  1 29  1  0  0  0  0
  1 30  1  0  0  0  0
  1 31  1  0  0  0  0
  2 32  1  0  0  0  0
  2 33  1  0  0  0  0
  8 34  1  0  0  0  0
 17 35  1  0  0  0  0
 23 36  1  0  0  0  0
 23 37  1  0  0  0  0
 24 38  1  0  0  0  0
 24 39  1  0  0  0  0
 24 40  1  0  0  0  0
M  END
> <id>
554

> <casrn>
166524-75-0

> <smiles (First)>


> <Molecular weight>
426.4242858886719

> <name>
-

> <Outcome>
0

> <Molecule (RDKit Mol) (InChI Code)>
InChI=1S/C14H12F2N8O2S2/c1-3-25-13-17-7(15)5-9-19-11(21-23(9)13)27-28-12-20-10-6-8(16)18-14(26-4-2)24(10)22-12/h5-6H,3-4H2,1-2H3

> <reference>
ECHA

> <molecule_form>
A

$$$$

  Mrv1812 01171911372D          

 26 25  0  0  0  0            999 V2000
    1.0461    1.4289    0.0000 C   0  0  0  0  0  0  0  0  0  0  0  0
    1.7605    1.8414    0.0000 C   0  0  0  0  0  0  0  0  0  0  0  0
    2.4750    1.4289    0.0000 C   0  0  0  0  0  0  0  0  0  0  0  0
    3.1895    1.8414    0.0000 C   0  0  0  0  0  0  0  0  0  0  0  0
    3.9040    1.4289    0.0000 C   0  0  0  0  0  0  0  0  0  0  0  0
    4.6184    1.8414    0.0000 C   0  0  0  0  0  0  0  0  0  0  0  0
    5.3329    1.4289    0.0000 C   0  0  0  0  0  0  0  0  0  0  0  0
    6.0474    1.8414    0.0000 C   0  0  0  0  0  0  0  0  0  0  0  0
    0.6336    2.1434    0.0000 H   0  0  0  0  0  0  0  0  0  0  0  0
    0.3316    1.0164    0.0000 H   0  0  0  0  0  0  0  0  0  0  0  0
    1.4586    0.7144    0.0000 H   0  0  0  0  0  0  0  0  0  0  0  0
    2.1308    2.5786    0.0000 H   0  0  0  0  0  0  0  0  0  0  0  0
    1.3903    2.5786    0.0000 H   0  0  0  0  0  0  0  0  0  0  0  0
    2.1048    0.6917    0.0000 H   0  0  0  0  0  0  0  0  0  0  0  0
    2.8453    0.6917    0.0000 H   0  0  0  0  0  0  0  0  0  0  0  0
    3.5598    2.5786    0.0000 H   0  0  0  0  0  0  0  0  0  0  0  0
    2.8192    2.5786    0.0000 H   0  0  0  0  0  0  0  0  0  0  0  0
    3.5337    0.6917    0.0000 H   0  0  0  0  0  0  0  0  0  0  0  0
    4.2742    0.6917    0.0000 H   0  0  0  0  0  0  0  0  0  0  0  0
    4.9887    2.5786    0.0000 H   0  0  0  0  0  0  0  0  0  0  0  0
    4.2482    2.5786    0.0000 H   0  0  0  0  0  0  0  0  0  0  0  0
    4.9626    0.6917    0.0000 H   0  0  0  0  0  0  0  0  0  0  0  0
    5.7032    0.6917    0.0000 H   0  0  0  0  0  0  0  0  0  0  0  0
    6.4599    1.1269    0.0000 H   0  0  0  0  0  0  0  0  0  0  0  0
    6.7618    2.2539    0.0000 H   0  0  0  0  0  0  0  0  0  0  0  0
    5.6349    2.5559    0.0000 H   0  0  0  0  0  0  0  0  0  0  0  0
  1  2  1  0  0  0  0
  2  3  1  0  0  0  0
  3  4  1  0  0  0  0
  4  5  1  0  0  0  0
  5  6  1  0  0  0  0
  6  7  1  0  0  0  0
  7  8  1  0  0  0  0
  1  9  1  0  0  0  0
  1 10  1  0  0  0  0
  1 11  1  0  0  0  0
  2 12  1  0  0  0  0
  2 13  1  0  0  0  0
  3 14  1  0  0  0  0
  3 15  1  0  0  0  0
  4 16  1  0  0  0  0
  4 17  1  0  0  0  0
  5 18  1  0  0  0  0
  5 19  1  0  0  0  0
  6 20  1  0  0  0  0
  6 21  1  0  0  0  0
  7 22  1  0  0  0  0
  7 23  1  0  0  0  0
  8 24  1  0  0  0  0
  8 25  1  0  0  0  0
  8 26  1  0  0  0  0
M  END
> <id>
3633

> <casrn>
111-65-9

> <smiles (First)>


> <Molecular weight>
114.22852325439453

> <name>
octane

> <Outcome>
0

> <Molecule (RDKit Mol) (InChI Code)>
InChI=1S/C8H18/c1-3-5-7-8-6-4-2/h3-8H2,1-2H3

> <reference>
ECHA

> <molecule_form>
V

$$$$

  Mrv1812 01171911372D          

 39 38  0  0  0  0            999 V2000
    5.7860    0.7883    0.0000 O   0  0  0  0  0  0  0  0  0  0  0  0
    5.0715    1.2008    0.0000 C   0  0  0  0  0  0  0  0  0  0  0  0
    4.3570    0.7883    0.0000 C   0  0  0  0  0  0  0  0  0  0  0  0
    3.9445    1.5027    0.0000 C   0  0  0  0  0  0  0  0  0  0  0  0
    3.1195    1.5027    0.0000 O   0  0  0  0  0  0  0  0  0  0  0  0
    4.7695    0.0738    0.0000 C   0  0  0  0  0  0  0  0  0  0  0  0
    4.3570   -0.6407    0.0000 O   0  0  0  0  0  0  0  0  0  0  0  0
    3.6426    0.3758    0.0000 C   0  0  0  0  0  0  0  0  0  0  0  0
    2.9281    0.7883    0.0000 O   0  0  0  0  0  0  0  0  0  0  0  0
    2.2136    0.3758    0.0000 C   0  0  0  0  0  0  0  0  0  0  0  0
    1.4991    0.7883    0.0000 C   0  0  0  0  0  0  0  0  0  0  0  0
    0.7847    1.2008    0.0000 C   0  0  0  0  0  0  0  0  0  0  0  0
    0.0702    0.7883    0.0000 O   0  0  0  0  0  0  0  0  0  0  0  0
    1.9116    1.5027    0.0000 C   0  0  0  0  0  0  0  0  0  0  0  0
    1.4991    2.2172    0.0000 O   0  0  0  0  0  0  0  0  0  0  0  0
    1.0866    0.0738    0.0000 C   0  0  0  0  0  0  0  0  0  0  0  0
    0.2616    0.0738    0.0000 O   0  0  0  0  0  0  0  0  0  0  0  0
    5.7860   -0.0367    0.0000 H   0  0  0  0  0  0  0  0  0  0  0  0
    5.4418    1.9380    0.0000 H   0  0  0  0  0  0  0  0  0  0  0  0
    4.7012    1.9380    0.0000 H   0  0  0  0  0  0  0  0  0  0  0  0
    3.7316    2.2998    0.0000 H   0  0  0  0  0  0  0  0  0  0  0  0
    3.5320    0.7883    0.0000 H   0  0  0  0  0  0  0  0  0  0  0  0
    2.6173    2.1572    0.0000 H   0  0  0  0  0  0  0  0  0  0  0  0
    5.5068   -0.2965    0.0000 H   0  0  0  0  0  0  0  0  0  0  0  0
    5.5068    0.4441    0.0000 H   0  0  0  0  0  0  0  0  0  0  0  0
    3.5320   -0.6407    0.0000 H   0  0  0  0  0  0  0  0  0  0  0  0
    3.2723   -0.3615    0.0000 H   0  0  0  0  0  0  0  0  0  0  0  0
    4.0128   -0.3615    0.0000 H   0  0  0  0  0  0  0  0  0  0  0  0
    1.8434   -0.3615    0.0000 H   0  0  0  0  0  0  0  0  0  0  0  0
    2.5839   -0.3615    0.0000 H   0  0  0  0  0  0  0  0  0  0  0  0
    1.1549    1.9380    0.0000 H   0  0  0  0  0  0  0  0  0  0  0  0
    0.4144    1.9380    0.0000 H   0  0  0  0  0  0  0  0  0  0  0  0
   -0.6920    1.1040    0.0000 H   0  0  0  0  0  0  0  0  0  0  0  0
    2.2509    0.7507    0.0000 H   0  0  0  0  0  0  0  0  0  0  0  0
    2.7203    1.3392    0.0000 H   0  0  0  0  0  0  0  0  0  0  0  0
    1.6492    3.0284    0.0000 H   0  0  0  0  0  0  0  0  0  0  0  0
    0.8738   -0.7233    0.0000 H   0  0  0  0  0  0  0  0  0  0  0  0
    0.6741    0.7883    0.0000 H   0  0  0  0  0  0  0  0  0  0  0  0
   -0.2406   -0.5807    0.0000 H   0  0  0  0  0  0  0  0  0  0  0  0
  1  2  1  0  0  0  0
  2  3  1  0  0  0  0
  3  4  1  0  0  0  0
  4  5  1  0  0  0  0
  3  6  1  0  0  0  0
  6  7  1  0  0  0  0
  3  8  1  0  0  0  0
  8  9  1  0  0  0  0
  9 10  1  0  0  0  0
 10 11  1  0  0  0  0
 11 12  1  0  0  0  0
 12 13  1  0  0  0  0
 11 14  1  0  0  0  0
 14 15  1  0  0  0  0
 11 16  1  0  0  0  0
 16 17  1  0  0  0  0
  1 18  1  0  0  0  0
  2 19  1  0  0  0  0
  2 20  1  0  0  0  0
  4 21  1  0  0  0  0
  4 22  1  0  0  0  0
  5 23  1  0  0  0  0
  6 24  1  0  0  0  0
  6 25  1  0  0  0  0
  7 26  1  0  0  0  0
  8 27  1  0  0  0  0
  8 28  1  0  0  0  0
 10 29  1  0  0  0  0
 10 30  1  0  0  0  0
 12 31  1  0  0  0  0
 12 32  1  0  0  0  0
 13 33  1  0  0  0  0
 14 34  1  0  0  0  0
 14 35  1  0  0  0  0
 15 36  1  0  0  0  0
 16 37  1  0  0  0  0
 16 38  1  0  0  0  0
 17 39  1  0  0  0  0
M  END
> <id>
1707

> <casrn>
126-58-9

> <smiles (First)>


> <Molecular weight>
254.27748107910156

> <name>
2-{[3-hydroxy-2,2-bis(hydroxymethyl)propoxy]methyl}-2-(hydroxymethyl)propane-1,3-diol

> <Outcome>
0

> <Molecule (RDKit Mol) (InChI Code)>
InChI=1S/C10H22O7/c11-1-9(2-12,3-13)7-17-8-10(4-14,5-15)6-16/h11-16H,1-8H2

> <reference>
ECHA

> <molecule_form>
A

$$$$

  Mrv1812 01171911372D          

 17 18  0  0  0  0            999 V2000
    0.0000   -0.0000    0.0000 O   0  0  0  0  0  0  0  0  0  0  0  0
    0.7145   -0.4125    0.0000 C   0  0  0  0  0  0  0  0  0  0  0  0
    1.4289   -0.0000    0.0000 N   0  0  0  0  0  0  0  0  0  0  0  0
    2.1434   -0.4125    0.0000 C   0  0  0  0  0  0  0  0  0  0  0  0
    2.8579   -0.0000    0.0000 C   0  0  0  0  0  0  0  0  0  0  0  0
    3.5724   -0.4125    0.0000 C   0  0  0  0  0  0  0  0  0  0  0  0
    3.5724   -1.2375    0.0000 C   0  0  0  0  0  0  0  0  0  0  0  0
    2.8579   -1.6500    0.0000 C   0  0  0  0  0  0  0  0  0  0  0  0
    2.1434   -1.2375    0.0000 C   0  0  0  0  0  0  0  0  0  0  0  0
    1.4289   -1.6500    0.0000 C   0  0  0  0  0  0  0  0  0  0  0  0
    1.4289   -2.4750    0.0000 O   0  0  0  0  0  0  0  0  0  0  0  0
    0.7145   -1.2375    0.0000 O   0  0  0  0  0  0  0  0  0  0  0  0
    1.4289    0.8250    0.0000 H   0  0  0  0  0  0  0  0  0  0  0  0
    2.8579    0.8250    0.0000 H   0  0  0  0  0  0  0  0  0  0  0  0
    4.2868   -0.0000    0.0000 H   0  0  0  0  0  0  0  0  0  0  0  0
    4.2868   -1.6500    0.0000 H   0  0  0  0  0  0  0  0  0  0  0  0
    2.8579   -2.4750    0.0000 H   0  0  0  0  0  0  0  0  0  0  0  0
  1  2  2  0  0  0  0
  2  3  1  0  0  0  0
  3  4  1  0  0  0  0
  4  5  4  0  0  0  0
  5  6  4  0  0  0  0
  6  7  4  0  0  0  0
  7  8  4  0  0  0  0
  8  9  4  0  0  0  0
  4  9  4  0  0  0  0
  9 10  1  0  0  0  0
 10 11  2  0  0  0  0
 10 12  1  0  0  0  0
  2 12  1  0  0  0  0
  3 13  1  0  0  0  0
  5 14  1  0  0  0  0
  6 15  1  0  0  0  0
  7 16  1  0  0  0  0
  8 17  1  0  0  0  0
M  END
> <id>
1293

> <casrn>
118-48-9

> <smiles (First)>


> <Molecular weight>
163.1302032470703

> <name>
2,4-dihydro-1H-3,1-benzoxazine-2,4-dione

> <Outcome>
0

> <Molecule (RDKit Mol) (InChI Code)>
InChI=1S/C8H5NO3/c10-7-5-3-1-2-4-6(5)9-8(11)12-7/h1-4H,(H,9,11)

> <reference>
ECHA

> <molecule_form>
A

$$$$

  Mrv1812 01171911372D          

 15 15  0  0  0  0            999 V2000
   -0.0000    2.4750    0.0000 O   0  0  0  0  0  0  0  0  0  0  0  0
    0.7145    2.0625    0.0000 C   0  0  0  0  0  0  0  0  0  0  0  0
    1.4289    2.4750    0.0000 O   0  0  0  0  0  0  0  0  0  0  0  0
    0.7145    1.2375    0.0000 C   0  0  0  0  0  0  0  0  0  0  0  0
    1.4289    0.8250    0.0000 C   0  0  0  0  0  0  0  0  0  0  0  0
    1.4289    0.0000    0.0000 C   0  0  0  0  0  0  0  0  0  0  0  0
    2.1434   -0.4125    0.0000 F   0  0  0  0  0  0  0  0  0  0  0  0
    0.7145   -0.4125    0.0000 C   0  0  0  0  0  0  0  0  0  0  0  0
    0.7145   -1.2375    0.0000 Br  0  0  0  0  0  0  0  0  0  0  0  0
   -0.0000    0.0000    0.0000 C   0  0  0  0  0  0  0  0  0  0  0  0
   -0.0000    0.8250    0.0000 C   0  0  0  0  0  0  0  0  0  0  0  0
   -0.7145    1.2375    0.0000 Cl  0  0  0  0  0  0  0  0  0  0  0  0
    2.1434    2.0625    0.0000 H   0  0  0  0  0  0  0  0  0  0  0  0
    2.1434    1.2375    0.0000 H   0  0  0  0  0  0  0  0  0  0  0  0
   -0.7145   -0.4125    0.0000 H   0  0  0  0  0  0  0  0  0  0  0  0
  1  2  2  0  0  0  0
  2  3  1  0  0  0  0
  2  4  1  0  0  0  0
  4  5  4  0  0  0  0
  5  6  4  0  0  0  0
  6  7  1  0  0  0  0
  6  8  4  0  0  0  0
  8  9  1  0  0  0  0
  8 10  4  0  0  0  0
 10 11  4  0  0  0  0
  4 11  4  0  0  0  0
 11 12  1  0  0  0  0
  3 13  1  0  0  0  0
  5 14  1  0  0  0  0
 10 15  1  0  0  0  0
M  END
> <id>
958

> <casrn>
64742-95-6

> <smiles (First)>


> <Molecular weight>
253.4529266357422

> <name>
1,3,5-trimethylbenzene; 1-ethyl-4-methylbenzene; prop-1-en-2-ylbenzene; propan-2-ylbenzene; propylbenzene

> <Outcome>
1

> <Molecule (RDKit Mol) (InChI Code)>
InChI=1S/C7H3BrClFO2/c8-4-2-5(9)3(7(11)12)1-6(4)10/h1-2H,(H,11,12)

> <reference>
ECHA

> <molecule_form>
V

$$$$

  Mrv1812 01171911372D          

 17 16  0  0  0  0            999 V2000
    2.4550   -1.4060    0.0000 C   0  0  0  0  0  0  0  0  0  0  0  0
    2.0425   -0.6915    0.0000 N   0  0  0  0  0  0  0  0  0  0  0  0
    2.4550    0.0229    0.0000 C   0  0  0  0  0  0  0  0  0  0  0  0
    1.2175   -0.6915    0.0000 C   0  0  0  0  0  0  0  0  0  0  0  0
    0.8050    0.0229    0.0000 C   0  0  0  0  0  0  0  0  0  0  0  0
   -0.0200    0.0229    0.0000 O   0  0  0  0  0  0  0  0  0  0  0  0
    1.7406   -1.8185    0.0000 H   0  0  0  0  0  0  0  0  0  0  0  0
    2.8675   -2.1205    0.0000 H   0  0  0  0  0  0  0  0  0  0  0  0
    3.1695   -0.9935    0.0000 H   0  0  0  0  0  0  0  0  0  0  0  0
    3.1695   -0.3896    0.0000 H   0  0  0  0  0  0  0  0  0  0  0  0
    2.8675    0.7374    0.0000 H   0  0  0  0  0  0  0  0  0  0  0  0
    1.7406    0.4354    0.0000 H   0  0  0  0  0  0  0  0  0  0  0  0
    0.5283   -1.1449    0.0000 H   0  0  0  0  0  0  0  0  0  0  0  0
    1.1696   -1.5151    0.0000 H   0  0  0  0  0  0  0  0  0  0  0  0
    1.4943    0.4763    0.0000 H   0  0  0  0  0  0  0  0  0  0  0  0
    0.8530    0.8465    0.0000 H   0  0  0  0  0  0  0  0  0  0  0  0
   -0.4325    0.7374    0.0000 H   0  0  0  0  0  0  0  0  0  0  0  0
  1  2  1  0  0  0  0
  2  3  1  0  0  0  0
  2  4  1  0  0  0  0
  4  5  1  0  0  0  0
  5  6  1  0  0  0  0
  1  7  1  0  0  0  0
  1  8  1  0  0  0  0
  1  9  1  0  0  0  0
  3 10  1  0  0  0  0
  3 11  1  0  0  0  0
  3 12  1  0  0  0  0
  4 13  1  0  0  0  0
  4 14  1  0  0  0  0
  5 15  1  0  0  0  0
  5 16  1  0  0  0  0
  6 17  1  0  0  0  0
M  END
> <id>
1339

> <casrn>
108-01-0

> <smiles (First)>


> <Molecular weight>
89.13623809814453

> <name>
2-(dimethylamino)ethan-1-ol

> <Outcome>
1

> <Molecule (RDKit Mol) (InChI Code)>
InChI=1S/C4H11NO/c1-5(2)3-4-6/h6H,3-4H2,1-2H3

> <reference>
ECHA

> <molecule_form>
V

$$$$

  Mrv1812 01171911372D          

 17 17  0  0  0  0            999 V2000
    1.4307    2.4760    0.0000 O   0  0  0  0  0  0  0  0  0  0  0  0
    0.7163    2.0635    0.0000 C   0  0  0  0  0  0  0  0  0  0  0  0
    0.0018    2.4760    0.0000 C   0  0  0  0  0  0  0  0  0  0  0  0
    0.0018    3.3010    0.0000 Cl  0  0  0  0  0  0  0  0  0  0  0  0
    0.7163    1.2385    0.0000 C   0  0  0  0  0  0  0  0  0  0  0  0
    1.4307    0.8260    0.0000 C   0  0  0  0  0  0  0  0  0  0  0  0
    1.4307    0.0010    0.0000 C   0  0  0  0  0  0  0  0  0  0  0  0
    0.7163   -0.4115    0.0000 C   0  0  0  0  0  0  0  0  0  0  0  0
    0.7163   -1.2365    0.0000 F   0  0  0  0  0  0  0  0  0  0  0  0
    0.0018    0.0010    0.0000 C   0  0  0  0  0  0  0  0  0  0  0  0
    0.0018    0.8260    0.0000 C   0  0  0  0  0  0  0  0  0  0  0  0
   -0.7127    1.2385    0.0000 F   0  0  0  0  0  0  0  0  0  0  0  0
   -0.8218    2.4280    0.0000 H   0  0  0  0  0  0  0  0  0  0  0  0
   -0.4516    1.7867    0.0000 H   0  0  0  0  0  0  0  0  0  0  0  0
    2.1452    1.2385    0.0000 H   0  0  0  0  0  0  0  0  0  0  0  0
    2.1452   -0.4115    0.0000 H   0  0  0  0  0  0  0  0  0  0  0  0
   -0.7127   -0.4115    0.0000 H   0  0  0  0  0  0  0  0  0  0  0  0
  1  2  2  0  0  0  0
  2  3  1  0  0  0  0
  3  4  1  0  0  0  0
  2  5  1  0  0  0  0
  5  6  4  0  0  0  0
  6  7  4  0  0  0  0
  7  8  4  0  0  0  0
  8  9  1  0  0  0  0
  8 10  4  0  0  0  0
 10 11  4  0  0  0  0
  5 11  4  0  0  0  0
 11 12  1  0  0  0  0
  3 13  1  0  0  0  0
  3 14  1  0  0  0  0
  6 15  1  0  0  0  0
  7 16  1  0  0  0  0
 10 17  1  0  0  0  0
M  END
> <id>
597

> <casrn>
51336-94-8

> <smiles (First)>


> <Molecular weight>
190.5745086669922

> <name>
-

> <Outcome>
1

> <Molecule (RDKit Mol) (InChI Code)>
InChI=1S/C8H5ClF2O/c9-4-8(12)6-2-1-5(10)3-7(6)11/h1-3H,4H2

> <reference>
ECHA

> <molecule_form>
V

$$$$

  Mrv1812 01171911372D          

  2  1  0  0  0  0            999 V2000
    0.8250    0.0000    0.0000 C   0  5  0  0  0  0  0  0  0  0  0  0
    0.0000    0.0000    0.0000 O   0  3  0  0  0  0  0  0  0  0  0  0
  1  2  3  0  0  0  0
M  CHG  2   1  -1   2   1
M  END
> <id>
3430; 3431; 3432

> <casrn>
630-08-0

> <smiles (First)>


> <Molecular weight>
28.010101318359375

> <name>
methanidylidyneoxidanium

> <Outcome>
1

> <Molecule (RDKit Mol) (InChI Code)>
InChI=1S/CO/c1-2

> <reference>
ECHA

> <molecule_form>
G

$$$$

  Mrv1812 01171911372D          

 48 54  0  0  0  0            999 V2000
    7.2404   -6.5643    0.0000 O   0  0  0  0  0  0  0  0  0  0  0  0
    7.5104   -5.7848    0.0000 C   0  0  0  0  0  0  0  0  0  0  0  0
    6.9703   -5.1611    0.0000 C   0  0  0  0  0  0  0  0  0  0  0  0
    6.1602   -5.3170    0.0000 C   0  0  0  0  0  0  0  0  0  0  0  0
    5.6201   -4.6934    0.0000 C   0  0  0  0  0  0  0  0  0  0  0  0
    5.8902   -3.9139    0.0000 C   0  0  0  0  0  0  0  0  0  0  0  0
    6.7003   -3.7579    0.0000 C   0  0  0  0  0  0  0  0  0  0  0  0
    7.2404   -4.3816    0.0000 C   0  0  0  0  0  0  0  0  0  0  0  0
    8.0505   -4.2257    0.0000 C   0  0  0  0  0  0  0  0  0  0  0  0
    8.3206   -3.4461    0.0000 O   0  0  0  0  0  0  0  0  0  0  0  0
    8.5906   -4.8493    0.0000 C   0  0  0  0  0  0  0  0  0  0  0  0
    8.3206   -5.6289    0.0000 C   0  0  0  0  0  0  0  0  0  0  0  0
    8.8606   -6.2525    0.0000 C   0  0  0  0  0  0  0  0  0  0  0  0
    9.6708   -6.0966    0.0000 C   0  0  0  0  0  0  0  0  0  0  0  0
    9.9408   -5.3170    0.0000 C   0  0  0  0  0  0  0  0  0  0  0  0
   10.7510   -5.1611    0.0000 N   0  0  0  0  0  0  0  0  0  0  0  0
   11.0210   -4.3816    0.0000 C   0  0  0  0  0  0  0  0  0  0  0  0
   10.4809   -3.7579    0.0000 C   0  0  0  0  0  0  0  0  0  0  0  0
   10.7510   -2.9784    0.0000 C   0  0  0  0  0  0  0  0  0  0  0  0
   11.5611   -2.8225    0.0000 C   0  0  0  0  0  0  0  0  0  0  0  0
   12.1012   -3.4461    0.0000 C   0  0  0  0  0  0  0  0  0  0  0  0
   12.9113   -3.2902    0.0000 C   0  0  0  0  0  0  0  0  0  0  0  0
   13.1814   -2.5107    0.0000 O   0  0  0  0  0  0  0  0  0  0  0  0
   13.4514   -3.9139    0.0000 C   0  0  0  0  0  0  0  0  0  0  0  0
   14.2615   -3.7579    0.0000 C   0  0  0  0  0  0  0  0  0  0  0  0
   14.8016   -4.3816    0.0000 C   0  0  0  0  0  0  0  0  0  0  0  0
   14.5316   -5.1611    0.0000 C   0  0  0  0  0  0  0  0  0  0  0  0
   13.7215   -5.3170    0.0000 C   0  0  0  0  0  0  0  0  0  0  0  0
   13.1814   -4.6934    0.0000 C   0  0  0  0  0  0  0  0  0  0  0  0
   12.3712   -4.8493    0.0000 C   0  0  0  0  0  0  0  0  0  0  0  0
   12.1012   -5.6289    0.0000 O   0  0  0  0  0  0  0  0  0  0  0  0
   11.8311   -4.2257    0.0000 C   0  0  0  0  0  0  0  0  0  0  0  0
    9.6708   -3.9139    0.0000 N   0  0  0  0  0  0  0  0  0  0  0  0
    9.4007   -4.6934    0.0000 C   0  0  0  0  0  0  0  0  0  0  0  0
    5.8902   -6.0966    0.0000 H   0  0  0  0  0  0  0  0  0  0  0  0
    4.8100   -4.8493    0.0000 H   0  0  0  0  0  0  0  0  0  0  0  0
    5.3501   -3.2902    0.0000 H   0  0  0  0  0  0  0  0  0  0  0  0
    6.9703   -2.9784    0.0000 H   0  0  0  0  0  0  0  0  0  0  0  0
    8.5906   -7.0321    0.0000 H   0  0  0  0  0  0  0  0  0  0  0  0
   10.2109   -6.7202    0.0000 H   0  0  0  0  0  0  0  0  0  0  0  0
   11.2910   -5.7848    0.0000 H   0  0  0  0  0  0  0  0  0  0  0  0
   10.2109   -2.3548    0.0000 H   0  0  0  0  0  0  0  0  0  0  0  0
   11.8311   -2.0429    0.0000 H   0  0  0  0  0  0  0  0  0  0  0  0
   14.5316   -2.9784    0.0000 H   0  0  0  0  0  0  0  0  0  0  0  0
   15.6118   -4.2257    0.0000 H   0  0  0  0  0  0  0  0  0  0  0  0
   15.0717   -5.7848    0.0000 H   0  0  0  0  0  0  0  0  0  0  0  0
   13.4514   -6.0966    0.0000 H   0  0  0  0  0  0  0  0  0  0  0  0
    9.1307   -3.2902    0.0000 H   0  0  0  0  0  0  0  0  0  0  0  0
  1  2  2  0  0  0  0
  2  3  1  0  0  0  0
  3  4  4  0  0  0  0
  4  5  4  0  0  0  0
  5  6  4  0  0  0  0
  6  7  4  0  0  0  0
  7  8  4  0  0  0  0
  3  8  4  0  0  0  0
  8  9  1  0  0  0  0
  9 10  2  0  0  0  0
  9 11  1  0  0  0  0
 11 12  4  0  0  0  0
  2 12  1  0  0  0  0
 12 13  4  0  0  0  0
 13 14  4  0  0  0  0
 14 15  4  0  0  0  0
 15 16  1  0  0  0  0
 16 17  1  0  0  0  0
 17 18  4  0  0  0  0
 18 19  4  0  0  0  0
 19 20  4  0  0  0  0
 20 21  4  0  0  0  0
 21 22  1  0  0  0  0
 22 23  2  0  0  0  0
 22 24  1  0  0  0  0
 24 25  4  0  0  0  0
 25 26  4  0  0  0  0
 26 27  4  0  0  0  0
 27 28  4  0  0  0  0
 28 29  4  0  0  0  0
 24 29  4  0  0  0  0
 29 30  1  0  0  0  0
 30 31  2  0  0  0  0
 30 32  1  0  0  0  0
 21 32  4  0  0  0  0
 17 32  4  0  0  0  0
 18 33  1  0  0  0  0
 33 34  1  0  0  0  0
 15 34  4  0  0  0  0
 11 34  4  0  0  0  0
  4 35  1  0  0  0  0
  5 36  1  0  0  0  0
  6 37  1  0  0  0  0
  7 38  1  0  0  0  0
 13 39  1  0  0  0  0
 14 40  1  0  0  0  0
 16 41  1  0  0  0  0
 19 42  1  0  0  0  0
 20 43  1  0  0  0  0
 25 44  1  0  0  0  0
 26 45  1  0  0  0  0
 27 46  1  0  0  0  0
 28 47  1  0  0  0  0
 33 48  1  0  0  0  0
M  END
> <id>
1232

> <casrn>
81-77-6

> <smiles (First)>


> <Molecular weight>
442.4217529296875

> <name>
2,17-diazaheptacyclo[16.12.0.0??,??????.0????,????.0????,????.0??????,??????.0????,??????]triaconta-1(30),3,6(11),7,9,13,15,18,21(26),22,24,28-dodecaene-5,12,20,27-tetrone

> <Outcome>
0

> <Molecule (RDKit Mol) (InChI Code)>
InChI=1S/C28H14N2O4/c31-25-13-5-1-3-7-15(13)27(33)21-17(25)9-11-19-23(21)29-20-12-10-18-22(24(20)30-19)28(34)16-8-4-2-6-14(16)26(18)32/h1-12,29-30H

> <reference>
ECHA

> <molecule_form>
A

$$$$

  Mrv1812 01171911372D          

 47 46  0  0  0  0            999 V2000
    6.6877    4.7169    0.0000 C   0  0  0  0  0  0  0  0  0  0  0  0
    7.4021    4.3044    0.0000 C   0  0  0  0  0  0  0  0  0  0  0  0
    8.1166    4.7169    0.0000 C   0  0  0  0  0  0  0  0  0  0  0  0
    8.8311    4.3044    0.0000 C   0  0  0  0  0  0  0  0  0  0  0  0
    9.5455    4.7169    0.0000 C   0  0  0  0  0  0  0  0  0  0  0  0
   10.2600    4.3044    0.0000 C   0  0  0  0  0  0  0  0  0  0  0  0
   10.9745    4.7169    0.0000 C   0  0  0  0  0  0  0  0  0  0  0  0
   11.6889    4.3044    0.0000 C   0  0  0  0  0  0  0  0  0  0  0  0
   12.4034    4.7169    0.0000 C   0  0  0  0  0  0  0  0  0  0  0  0
   13.1179    4.3044    0.0000 C   0  0  0  0  0  0  0  0  0  0  0  0
   13.8324    4.7169    0.0000 C   0  0  0  0  0  0  0  0  0  0  0  0
   14.5468    4.3044    0.0000 C   0  0  0  0  0  0  0  0  0  0  0  0
   14.5468    3.4794    0.0000 O   0  0  0  0  0  0  0  0  0  0  0  0
   15.2613    4.7169    0.0000 O   0  0  0  0  0  0  0  0  0  0  0  0
   15.9758    4.3044    0.0000 C   0  0  0  0  0  0  0  0  0  0  0  0
   16.6902    4.7169    0.0000 C   0  0  0  0  0  0  0  0  0  0  0  0
   15.9758    3.4794    0.0000 C   0  0  0  0  0  0  0  0  0  0  0  0
    7.1002    5.4313    0.0000 H   0  0  0  0  0  0  0  0  0  0  0  0
    5.9732    5.1294    0.0000 H   0  0  0  0  0  0  0  0  0  0  0  0
    6.2752    4.0024    0.0000 H   0  0  0  0  0  0  0  0  0  0  0  0
    7.0319    3.5671    0.0000 H   0  0  0  0  0  0  0  0  0  0  0  0
    7.7724    3.5671    0.0000 H   0  0  0  0  0  0  0  0  0  0  0  0
    8.4869    5.4541    0.0000 H   0  0  0  0  0  0  0  0  0  0  0  0
    7.7463    5.4541    0.0000 H   0  0  0  0  0  0  0  0  0  0  0  0
    8.4608    3.5671    0.0000 H   0  0  0  0  0  0  0  0  0  0  0  0
    9.2013    3.5671    0.0000 H   0  0  0  0  0  0  0  0  0  0  0  0
    9.9158    5.4541    0.0000 H   0  0  0  0  0  0  0  0  0  0  0  0
    9.1753    5.4541    0.0000 H   0  0  0  0  0  0  0  0  0  0  0  0
    9.8897    3.5671    0.0000 H   0  0  0  0  0  0  0  0  0  0  0  0
   10.6303    3.5671    0.0000 H   0  0  0  0  0  0  0  0  0  0  0  0
   11.3447    5.4541    0.0000 H   0  0  0  0  0  0  0  0  0  0  0  0
   10.6042    5.4541    0.0000 H   0  0  0  0  0  0  0  0  0  0  0  0
   11.3187    3.5671    0.0000 H   0  0  0  0  0  0  0  0  0  0  0  0
   12.0592    3.5671    0.0000 H   0  0  0  0  0  0  0  0  0  0  0  0
   12.7737    5.4541    0.0000 H   0  0  0  0  0  0  0  0  0  0  0  0
   12.0332    5.4541    0.0000 H   0  0  0  0  0  0  0  0  0  0  0  0
   12.7476    3.5671    0.0000 H   0  0  0  0  0  0  0  0  0  0  0  0
   13.4882    3.5671    0.0000 H   0  0  0  0  0  0  0  0  0  0  0  0
   14.2026    5.4541    0.0000 H   0  0  0  0  0  0  0  0  0  0  0  0
   13.4621    5.4541    0.0000 H   0  0  0  0  0  0  0  0  0  0  0  0
   15.9758    5.1294    0.0000 H   0  0  0  0  0  0  0  0  0  0  0  0
   16.9038    3.9200    0.0000 H   0  0  0  0  0  0  0  0  0  0  0  0
   17.5152    4.7169    0.0000 H   0  0  0  0  0  0  0  0  0  0  0  0
   16.9038    5.5138    0.0000 H   0  0  0  0  0  0  0  0  0  0  0  0
   15.1508    3.4794    0.0000 H   0  0  0  0  0  0  0  0  0  0  0  0
   15.9758    2.6544    0.0000 H   0  0  0  0  0  0  0  0  0  0  0  0
   16.8008    3.4794    0.0000 H   0  0  0  0  0  0  0  0  0  0  0  0
  1  2  1  0  0  0  0
  2  3  1  0  0  0  0
  3  4  1  0  0  0  0
  4  5  1  0  0  0  0
  5  6  1  0  0  0  0
  6  7  1  0  0  0  0
  7  8  1  0  0  0  0
  8  9  1  0  0  0  0
  9 10  1  0  0  0  0
 10 11  1  0  0  0  0
 11 12  1  0  0  0  0
 12 13  2  0  0  0  0
 12 14  1  0  0  0  0
 14 15  1  0  0  0  0
 15 16  1  0  0  0  0
 15 17  1  0  0  0  0
  1 18  1  0  0  0  0
  1 19  1  0  0  0  0
  1 20  1  0  0  0  0
  2 21  1  0  0  0  0
  2 22  1  0  0  0  0
  3 23  1  0  0  0  0
  3 24  1  0  0  0  0
  4 25  1  0  0  0  0
  4 26  1  0  0  0  0
  5 27  1  0  0  0  0
  5 28  1  0  0  0  0
  6 29  1  0  0  0  0
  6 30  1  0  0  0  0
  7 31  1  0  0  0  0
  7 32  1  0  0  0  0
  8 33  1  0  0  0  0
  8 34  1  0  0  0  0
  9 35  1  0  0  0  0
  9 36  1  0  0  0  0
 10 37  1  0  0  0  0
 10 38  1  0  0  0  0
 11 39  1  0  0  0  0
 11 40  1  0  0  0  0
 15 41  1  0  0  0  0
 16 42  1  0  0  0  0
 16 43  1  0  0  0  0
 16 44  1  0  0  0  0
 17 45  1  0  0  0  0
 17 46  1  0  0  0  0
 17 47  1  0  0  0  0
M  END
> <id>
3796

> <casrn>
10233-13-3

> <smiles (First)>


> <Molecular weight>
242.3975067138672

> <name>
propan-2-yl dodecanoate

> <Outcome>
0

> <Molecule (RDKit Mol) (InChI Code)>
InChI=1S/C15H30O2/c1-4-5-6-7-8-9-10-11-12-13-15(16)17-14(2)3/h14H,4-13H2,1-3H3

> <reference>
ECHA

> <molecule_form>
A

$$$$

  Mrv1812 01171911372D          

 37 38  0  0  0  0            999 V2000
    3.5724   -2.8865    0.0000 C   0  0  0  0  0  0  0  0  0  0  0  0
    3.5724   -3.7115    0.0000 C   0  0  0  0  0  0  0  0  0  0  0  0
    2.8579   -4.1240    0.0000 C   0  0  0  0  0  0  0  0  0  0  0  0
    2.1434   -3.7115    0.0000 O   0  0  0  0  0  0  0  0  0  0  0  0
    1.4289   -4.1240    0.0000 C   0  0  0  0  0  0  0  0  0  0  0  0
    1.4289   -4.9490    0.0000 O   0  0  0  0  0  0  0  0  0  0  0  0
    0.7145   -3.7115    0.0000 C   0  0  0  0  0  0  0  0  0  0  0  0
    0.0000   -4.1240    0.0000 C   0  0  0  0  0  0  0  0  0  0  0  0
   -0.7145   -3.7115    0.0000 C   0  0  0  0  0  0  0  0  0  0  0  0
   -0.7145   -2.8865    0.0000 C   0  0  0  0  0  0  0  0  0  0  0  0
    0.0000   -2.4740    0.0000 C   0  0  0  0  0  0  0  0  0  0  0  0
    0.7145   -2.8865    0.0000 C   0  0  0  0  0  0  0  0  0  0  0  0
    4.2868   -4.1240    0.0000 O   0  0  0  0  0  0  0  0  0  0  0  0
    5.0013   -3.7115    0.0000 C   0  0  0  0  0  0  0  0  0  0  0  0
    5.0013   -2.8865    0.0000 O   0  0  0  0  0  0  0  0  0  0  0  0
    5.7158   -4.1240    0.0000 C   0  0  0  0  0  0  0  0  0  0  0  0
    6.4302   -3.7115    0.0000 C   0  0  0  0  0  0  0  0  0  0  0  0
    7.1447   -4.1240    0.0000 C   0  0  0  0  0  0  0  0  0  0  0  0
    7.1447   -4.9490    0.0000 C   0  0  0  0  0  0  0  0  0  0  0  0
    6.4302   -5.3615    0.0000 C   0  0  0  0  0  0  0  0  0  0  0  0
    5.7158   -4.9490    0.0000 C   0  0  0  0  0  0  0  0  0  0  0  0
    4.3974   -2.8865    0.0000 H   0  0  0  0  0  0  0  0  0  0  0  0
    3.5724   -2.0615    0.0000 H   0  0  0  0  0  0  0  0  0  0  0  0
    2.7474   -2.8865    0.0000 H   0  0  0  0  0  0  0  0  0  0  0  0
    2.8579   -3.2990    0.0000 H   0  0  0  0  0  0  0  0  0  0  0  0
    2.4876   -4.8613    0.0000 H   0  0  0  0  0  0  0  0  0  0  0  0
    3.2281   -4.8613    0.0000 H   0  0  0  0  0  0  0  0  0  0  0  0
    0.0000   -4.9490    0.0000 H   0  0  0  0  0  0  0  0  0  0  0  0
   -1.4289   -4.1240    0.0000 H   0  0  0  0  0  0  0  0  0  0  0  0
   -1.4289   -2.4740    0.0000 H   0  0  0  0  0  0  0  0  0  0  0  0
    0.0000   -1.6490    0.0000 H   0  0  0  0  0  0  0  0  0  0  0  0
    1.4289   -2.4740    0.0000 H   0  0  0  0  0  0  0  0  0  0  0  0
    6.4302   -2.8865    0.0000 H   0  0  0  0  0  0  0  0  0  0  0  0
    7.8592   -3.7115    0.0000 H   0  0  0  0  0  0  0  0  0  0  0  0
    7.8592   -5.3615    0.0000 H   0  0  0  0  0  0  0  0  0  0  0  0
    6.4302   -6.1865    0.0000 H   0  0  0  0  0  0  0  0  0  0  0  0
    5.0013   -5.3615    0.0000 H   0  0  0  0  0  0  0  0  0  0  0  0
  1  2  1  0  0  0  0
  2  3  1  0  0  0  0
  3  4  1  0  0  0  0
  4  5  1  0  0  0  0
  5  6  2  0  0  0  0
  5  7  1  0  0  0  0
  7  8  4  0  0  0  0
  8  9  4  0  0  0  0
  9 10  4  0  0  0  0
 10 11  4  0  0  0  0
 11 12  4  0  0  0  0
  7 12  4  0  0  0  0
  2 13  1  0  0  0  0
 13 14  1  0  0  0  0
 14 15  2  0  0  0  0
 14 16  1  0  0  0  0
 16 17  4  0  0  0  0
 17 18  4  0  0  0  0
 18 19  4  0  0  0  0
 19 20  4  0  0  0  0
 20 21  4  0  0  0  0
 16 21  4  0  0  0  0
  1 22  1  0  0  0  0
  1 23  1  0  0  0  0
  1 24  1  0  0  0  0
  2 25  1  0  0  0  0
  3 26  1  0  0  0  0
  3 27  1  0  0  0  0
  8 28  1  0  0  0  0
  9 29  1  0  0  0  0
 10 30  1  0  0  0  0
 11 31  1  0  0  0  0
 12 32  1  0  0  0  0
 17 33  1  0  0  0  0
 18 34  1  0  0  0  0
 19 35  1  0  0  0  0
 20 36  1  0  0  0  0
 21 37  1  0  0  0  0
M  END
> <id>
3805

> <casrn>
19224-26-1

> <smiles (First)>


> <Molecular weight>
284.3065490722656

> <name>
propane-1,2-diyl dibenzoate

> <Outcome>
0

> <Molecule (RDKit Mol) (InChI Code)>
InChI=1S/C17H16O4/c1-13(21-17(19)15-10-6-3-7-11-15)12-20-16(18)14-8-4-2-5-9-14/h2-11,13H,12H2,1H3

> <reference>
ECHA

> <molecule_form>
A

$$$$

  Mrv1812 01171911372D          

 82 83  0  0  0  0            999 V2000
    3.2520   -2.8652    0.0000 C   0  0  0  0  0  0  0  0  0  0  0  0
    2.5854   -3.3513    0.0000 C   0  0  0  0  0  0  0  0  0  0  0  0
    2.2225   -2.6104    0.0000 C   0  0  0  0  0  0  0  0  0  0  0  0
    3.1799   -3.9233    0.0000 C   0  0  0  0  0  0  0  0  0  0  0  0
    2.9818   -4.7242    0.0000 C   0  0  0  0  0  0  0  0  0  0  0  0
    3.5762   -5.2962    0.0000 N   0  0  0  0  0  0  0  0  0  0  0  0
    3.3781   -6.0970    0.0000 C   0  0  0  0  0  0  0  0  0  0  0  0
    2.5854   -6.3259    0.0000 O   0  0  0  0  0  0  0  0  0  0  0  0
    4.3689   -5.0674    0.0000 C   0  0  0  0  0  0  0  0  0  0  0  0
    4.9633   -5.6394    0.0000 C   0  0  0  0  0  0  0  0  0  0  0  0
    5.7560   -5.4106    0.0000 C   0  0  0  0  0  0  0  0  0  0  0  0
    6.3505   -5.9826    0.0000 C   0  0  0  0  0  0  0  0  0  0  0  0
    7.1431   -5.7538    0.0000 C   0  0  0  0  0  0  0  0  0  0  0  0
    7.7376   -6.3259    0.0000 C   0  0  0  0  0  0  0  0  0  0  0  0
    8.5302   -6.0970    0.0000 N   0  0  0  0  0  0  0  0  0  0  0  0
    8.7284   -5.2962    0.0000 C   0  0  0  0  0  0  0  0  0  0  0  0
    9.5210   -5.0674    0.0000 O   0  0  0  0  0  0  0  0  0  0  0  0
    9.1247   -6.6691    0.0000 C   0  0  0  0  0  0  0  0  0  0  0  0
    9.9173   -6.4403    0.0000 C   0  0  0  0  0  0  0  0  0  0  0  0
   10.5118   -7.0123    0.0000 C   0  0  0  0  0  0  0  0  0  0  0  0
   10.9719   -6.3275    0.0000 C   0  0  0  0  0  0  0  0  0  0  0  0
   11.2661   -7.3465    0.0000 C   0  0  0  0  0  0  0  0  0  0  0  0
   10.3136   -7.8131    0.0000 N   0  0  0  0  0  0  0  0  0  0  0  0
    9.5210   -8.0420    0.0000 C   0  0  0  0  0  0  0  0  0  0  0  0
    9.8840   -8.7828    0.0000 C   0  0  0  0  0  0  0  0  0  0  0  0
    8.8544   -8.5281    0.0000 C   0  0  0  0  0  0  0  0  0  0  0  0
    8.9265   -7.4699    0.0000 C   0  0  0  0  0  0  0  0  0  0  0  0
    2.1891   -4.9530    0.0000 C   0  0  0  0  0  0  0  0  0  0  0  0
    1.5946   -4.3809    0.0000 C   0  0  0  0  0  0  0  0  0  0  0  0
    1.1345   -5.0657    0.0000 C   0  0  0  0  0  0  0  0  0  0  0  0
    0.8404   -4.0467    0.0000 C   0  0  0  0  0  0  0  0  0  0  0  0
    1.7928   -3.5801    0.0000 N   0  0  0  0  0  0  0  0  0  0  0  0
    3.7381   -3.5317    0.0000 H   0  0  0  0  0  0  0  0  0  0  0  0
    3.9186   -2.3790    0.0000 H   0  0  0  0  0  0  0  0  0  0  0  0
    2.7659   -2.1986    0.0000 H   0  0  0  0  0  0  0  0  0  0  0  0
    2.0525   -1.8031    0.0000 H   0  0  0  0  0  0  0  0  0  0  0  0
    1.4198   -2.4196    0.0000 H   0  0  0  0  0  0  0  0  0  0  0  0
    1.7074   -3.2549    0.0000 H   0  0  0  0  0  0  0  0  0  0  0  0
    3.8604   -4.3897    0.0000 H   0  0  0  0  0  0  0  0  0  0  0  0
    2.3873   -4.1521    0.0000 H   0  0  0  0  0  0  0  0  0  0  0  0
    2.7836   -5.5250    0.0000 H   0  0  0  0  0  0  0  0  0  0  0  0
    3.9725   -6.6691    0.0000 H   0  0  0  0  0  0  0  0  0  0  0  0
    4.9868   -4.5208    0.0000 H   0  0  0  0  0  0  0  0  0  0  0  0
    4.1707   -5.8682    0.0000 H   0  0  0  0  0  0  0  0  0  0  0  0
    4.9073   -6.4625    0.0000 H   0  0  0  0  0  0  0  0  0  0  0  0
    5.4495   -6.3060    0.0000 H   0  0  0  0  0  0  0  0  0  0  0  0
    6.2925   -4.7839    0.0000 H   0  0  0  0  0  0  0  0  0  0  0  0
    5.5736   -4.6060    0.0000 H   0  0  0  0  0  0  0  0  0  0  0  0
    6.1864   -6.7912    0.0000 H   0  0  0  0  0  0  0  0  0  0  0  0
    6.9569   -6.5419    0.0000 H   0  0  0  0  0  0  0  0  0  0  0  0
    7.6796   -5.1271    0.0000 H   0  0  0  0  0  0  0  0  0  0  0  0
    6.9607   -4.9492    0.0000 H   0  0  0  0  0  0  0  0  0  0  0  0
    7.6760   -7.1485    0.0000 H   0  0  0  0  0  0  0  0  0  0  0  0
    8.2208   -6.9945    0.0000 H   0  0  0  0  0  0  0  0  0  0  0  0
    8.1339   -4.7242    0.0000 H   0  0  0  0  0  0  0  0  0  0  0  0
    9.3228   -5.8682    0.0000 H   0  0  0  0  0  0  0  0  0  0  0  0
   10.6582   -6.0773    0.0000 H   0  0  0  0  0  0  0  0  0  0  0  0
   10.2515   -5.6860    0.0000 H   0  0  0  0  0  0  0  0  0  0  0  0
   11.4049   -7.0298    0.0000 H   0  0  0  0  0  0  0  0  0  0  0  0
   11.7904   -6.2240    0.0000 H   0  0  0  0  0  0  0  0  0  0  0  0
   11.2164   -5.5396    0.0000 H   0  0  0  0  0  0  0  0  0  0  0  0
   10.6692   -7.9161    0.0000 H   0  0  0  0  0  0  0  0  0  0  0  0
   11.5646   -8.1156    0.0000 H   0  0  0  0  0  0  0  0  0  0  0  0
   12.0909   -7.3641    0.0000 H   0  0  0  0  0  0  0  0  0  0  0  0
   10.3133   -8.6381    0.0000 H   0  0  0  0  0  0  0  0  0  0  0  0
    9.0593   -8.8077    0.0000 H   0  0  0  0  0  0  0  0  0  0  0  0
    9.5664   -9.5443    0.0000 H   0  0  0  0  0  0  0  0  0  0  0  0
   10.4465   -9.3863    0.0000 H   0  0  0  0  0  0  0  0  0  0  0  0
    8.6599   -7.7263    0.0000 H   0  0  0  0  0  0  0  0  0  0  0  0
    8.0392   -8.4014    0.0000 H   0  0  0  0  0  0  0  0  0  0  0  0
    8.4258   -9.2330    0.0000 H   0  0  0  0  0  0  0  0  0  0  0  0
    9.7191   -7.2411    0.0000 H   0  0  0  0  0  0  0  0  0  0  0  0
    8.1046   -7.5412    0.0000 H   0  0  0  0  0  0  0  0  0  0  0  0
    1.4483   -5.3159    0.0000 H   0  0  0  0  0  0  0  0  0  0  0  0
    1.8549   -5.7072    0.0000 H   0  0  0  0  0  0  0  0  0  0  0  0
    0.7016   -4.3635    0.0000 H   0  0  0  0  0  0  0  0  0  0  0  0
    0.3160   -5.1692    0.0000 H   0  0  0  0  0  0  0  0  0  0  0  0
    0.8900   -5.8536    0.0000 H   0  0  0  0  0  0  0  0  0  0  0  0
    1.4372   -3.4772    0.0000 H   0  0  0  0  0  0  0  0  0  0  0  0
    0.5418   -3.2776    0.0000 H   0  0  0  0  0  0  0  0  0  0  0  0
    0.0156   -4.0291    0.0000 H   0  0  0  0  0  0  0  0  0  0  0  0
    2.2002   -2.8627    0.0000 H   0  0  0  0  0  0  0  0  0  0  0  0
  1  2  1  0  0  0  0
  2  3  1  0  0  0  0
  2  4  1  0  0  0  0
  4  5  1  0  0  0  0
  5  6  1  0  0  0  0
  6  7  1  0  0  0  0
  7  8  2  0  0  0  0
  6  9  1  0  0  0  0
  9 10  1  0  0  0  0
 10 11  1  0  0  0  0
 11 12  1  0  0  0  0
 12 13  1  0  0  0  0
 13 14  1  0  0  0  0
 14 15  1  0  0  0  0
 15 16  1  0  0  0  0
 16 17  2  0  0  0  0
 15 18  1  0  0  0  0
 18 19  1  0  0  0  0
 19 20  1  0  0  0  0
 20 21  1  0  0  0  0
 20 22  1  0  0  0  0
 20 23  1  0  0  0  0
 23 24  1  0  0  0  0
 24 25  1  0  0  0  0
 24 26  1  0  0  0  0
 24 27  1  0  0  0  0
 18 27  1  0  0  0  0
  5 28  1  0  0  0  0
 28 29  1  0  0  0  0
 29 30  1  0  0  0  0
 29 31  1  0  0  0  0
 29 32  1  0  0  0  0
  2 32  1  0  0  0  0
  1 33  1  0  0  0  0
  1 34  1  0  0  0  0
  1 35  1  0  0  0  0
  3 36  1  0  0  0  0
  3 37  1  0  0  0  0
  3 38  1  0  0  0  0
  4 39  1  0  0  0  0
  4 40  1  0  0  0  0
  5 41  1  0  0  0  0
  7 42  1  0  0  0  0
  9 43  1  0  0  0  0
  9 44  1  0  0  0  0
 10 45  1  0  0  0  0
 10 46  1  0  0  0  0
 11 47  1  0  0  0  0
 11 48  1  0  0  0  0
 12 49  1  0  0  0  0
 12 50  1  0  0  0  0
 13 51  1  0  0  0  0
 13 52  1  0  0  0  0
 14 53  1  0  0  0  0
 14 54  1  0  0  0  0
 16 55  1  0  0  0  0
 18 56  1  0  0  0  0
 19 57  1  0  0  0  0
 19 58  1  0  0  0  0
 21 59  1  0  0  0  0
 21 60  1  0  0  0  0
 21 61  1  0  0  0  0
 22 62  1  0  0  0  0
 22 63  1  0  0  0  0
 22 64  1  0  0  0  0
 23 65  1  0  0  0  0
 25 66  1  0  0  0  0
 25 67  1  0  0  0  0
 25 68  1  0  0  0  0
 26 69  1  0  0  0  0
 26 70  1  0  0  0  0
 26 71  1  0  0  0  0
 27 72  1  0  0  0  0
 27 73  1  0  0  0  0
 28 74  1  0  0  0  0
 28 75  1  0  0  0  0
 30 76  1  0  0  0  0
 30 77  1  0  0  0  0
 30 78  1  0  0  0  0
 31 79  1  0  0  0  0
 31 80  1  0  0  0  0
 31 81  1  0  0  0  0
 32 82  1  0  0  0  0
M  END
> <id>
2388; 2390

> <casrn>
124172-53-8

> <smiles (First)>


> <Molecular weight>
450.7008056640625

> <name>
N-(2,2,6,6-tetramethylpiperidin-4-yl)-N-{6-[N-(2,2,6,6-tetramethylpiperidin-4-yl)formamido]hexyl}formamide

> <Outcome>
0

> <Molecule (RDKit Mol) (InChI Code)>
InChI=1S/C26H50N4O2/c1-23(2)15-21(16-24(3,4)27-23)29(19-31)13-11-9-10-12-14-30(20-32)22-17-25(5,6)28-26(7,8)18-22/h19-22,27-28H,9-18H2,1-8H3

> <reference>
ECHA

> <molecule_form>
A

$$$$

  Mrv1812 01171911372D          

  9  8  0  0  0  0            999 V2000
    1.2415    0.7145    0.0000 Cl  0  0  0  0  0  0  0  0  0  0  0  0
    0.8290   -0.0000    0.0000 C   0  0  0  0  0  0  0  0  0  0  0  0
    0.0040   -0.0000    0.0000 C   0  0  0  0  0  0  0  0  0  0  0  0
   -0.4085   -0.7145    0.0000 C   0  0  0  0  0  0  0  0  0  0  0  0
    0.0040   -1.4289    0.0000 Cl  0  0  0  0  0  0  0  0  0  0  0  0
    1.2415   -0.7145    0.0000 H   0  0  0  0  0  0  0  0  0  0  0  0
   -0.4085    0.7145    0.0000 H   0  0  0  0  0  0  0  0  0  0  0  0
   -1.1458   -0.3442    0.0000 H   0  0  0  0  0  0  0  0  0  0  0  0
   -1.1458   -1.0847    0.0000 H   0  0  0  0  0  0  0  0  0  0  0  0
  2  1  1  4  0  0  0
  2  3  2  0  0  0  0
  3  4  1  0  0  0  0
  4  5  1  0  0  0  0
  2  6  1  0  0  0  0
  3  7  1  0  0  0  0
  4  8  1  0  0  0  0
  4  9  1  0  0  0  0
M  END
> <id>
987

> <casrn>
10061-01-5

> <smiles (First)>


> <Molecular weight>
110.96985626220703

> <name>
1,3-dichloroprop-1-ene

> <Outcome>
1

> <Molecule (RDKit Mol) (InChI Code)>
InChI=1S/C3H4Cl2/c4-2-1-3-5/h1-2H,3H2

> <reference>
ECHA

> <molecule_form>
V

$$$$

  Mrv1812 01171911372D          

 41 40  0  0  0  0            999 V2000
    4.7586    3.5724    0.0000 C   0  0  0  0  0  0  0  0  0  0  0  0
    5.4730    3.9849    0.0000 C   0  0  0  0  0  0  0  0  0  0  0  0
    6.1875    3.5724    0.0000 C   0  0  0  0  0  0  0  0  0  0  0  0
    6.9020    3.9849    0.0000 C   0  0  0  0  0  0  0  0  0  0  0  0
    7.6164    3.5724    0.0000 C   0  0  0  0  0  0  0  0  0  0  0  0
    8.3309    3.9849    0.0000 C   0  0  0  0  0  0  0  0  0  0  0  0
    9.0454    3.5724    0.0000 C   0  0  0  0  0  0  0  0  0  0  0  0
    9.7599    3.9849    0.0000 C   0  0  0  0  0  0  0  0  0  0  0  0
   10.4743    3.5724    0.0000 C   0  0  0  0  0  0  0  0  0  0  0  0
   11.1888    3.9849    0.0000 C   0  0  0  0  0  0  0  0  0  0  0  0
   11.9033    3.5724    0.0000 C   0  0  0  0  0  0  0  0  0  0  0  0
   12.6177    3.9849    0.0000 C   0  0  0  0  0  0  0  0  0  0  0  0
   12.6177    4.8099    0.0000 O   0  0  0  0  0  0  0  0  0  0  0  0
   13.3322    3.5724    0.0000 O   0  0  0  0  0  0  0  0  0  0  0  0
   14.0467    3.9849    0.0000 C   0  0  0  0  0  0  0  0  0  0  0  0
    4.3461    4.2869    0.0000 H   0  0  0  0  0  0  0  0  0  0  0  0
    4.0441    3.1599    0.0000 H   0  0  0  0  0  0  0  0  0  0  0  0
    5.1711    2.8579    0.0000 H   0  0  0  0  0  0  0  0  0  0  0  0
    5.8433    4.7221    0.0000 H   0  0  0  0  0  0  0  0  0  0  0  0
    5.1028    4.7221    0.0000 H   0  0  0  0  0  0  0  0  0  0  0  0
    5.8172    2.8352    0.0000 H   0  0  0  0  0  0  0  0  0  0  0  0
    6.5578    2.8352    0.0000 H   0  0  0  0  0  0  0  0  0  0  0  0
    7.2722    4.7221    0.0000 H   0  0  0  0  0  0  0  0  0  0  0  0
    6.5317    4.7221    0.0000 H   0  0  0  0  0  0  0  0  0  0  0  0
    7.2462    2.8352    0.0000 H   0  0  0  0  0  0  0  0  0  0  0  0
    7.9867    2.8352    0.0000 H   0  0  0  0  0  0  0  0  0  0  0  0
    8.7012    4.7221    0.0000 H   0  0  0  0  0  0  0  0  0  0  0  0
    7.9607    4.7221    0.0000 H   0  0  0  0  0  0  0  0  0  0  0  0
    8.6751    2.8352    0.0000 H   0  0  0  0  0  0  0  0  0  0  0  0
    9.4156    2.8352    0.0000 H   0  0  0  0  0  0  0  0  0  0  0  0
   10.1301    4.7221    0.0000 H   0  0  0  0  0  0  0  0  0  0  0  0
    9.3896    4.7221    0.0000 H   0  0  0  0  0  0  0  0  0  0  0  0
   10.1041    2.8352    0.0000 H   0  0  0  0  0  0  0  0  0  0  0  0
   10.8446    2.8352    0.0000 H   0  0  0  0  0  0  0  0  0  0  0  0
   11.5591    4.7221    0.0000 H   0  0  0  0  0  0  0  0  0  0  0  0
   10.8185    4.7221    0.0000 H   0  0  0  0  0  0  0  0  0  0  0  0
   11.5330    2.8352    0.0000 H   0  0  0  0  0  0  0  0  0  0  0  0
   12.2735    2.8352    0.0000 H   0  0  0  0  0  0  0  0  0  0  0  0
   14.4592    3.2704    0.0000 H   0  0  0  0  0  0  0  0  0  0  0  0
   14.7612    4.3974    0.0000 H   0  0  0  0  0  0  0  0  0  0  0  0
   13.6342    4.6994    0.0000 H   0  0  0  0  0  0  0  0  0  0  0  0
  1  2  1  0  0  0  0
  2  3  1  0  0  0  0
  3  4  1  0  0  0  0
  4  5  1  0  0  0  0
  5  6  1  0  0  0  0
  6  7  1  0  0  0  0
  7  8  1  0  0  0  0
  8  9  1  0  0  0  0
  9 10  1  0  0  0  0
 10 11  1  0  0  0  0
 11 12  1  0  0  0  0
 12 13  2  0  0  0  0
 12 14  1  0  0  0  0
 14 15  1  0  0  0  0
  1 16  1  0  0  0  0
  1 17  1  0  0  0  0
  1 18  1  0  0  0  0
  2 19  1  0  0  0  0
  2 20  1  0  0  0  0
  3 21  1  0  0  0  0
  3 22  1  0  0  0  0
  4 23  1  0  0  0  0
  4 24  1  0  0  0  0
  5 25  1  0  0  0  0
  5 26  1  0  0  0  0
  6 27  1  0  0  0  0
  6 28  1  0  0  0  0
  7 29  1  0  0  0  0
  7 30  1  0  0  0  0
  8 31  1  0  0  0  0
  8 32  1  0  0  0  0
  9 33  1  0  0  0  0
  9 34  1  0  0  0  0
 10 35  1  0  0  0  0
 10 36  1  0  0  0  0
 11 37  1  0  0  0  0
 11 38  1  0  0  0  0
 15 39  1  0  0  0  0
 15 40  1  0  0  0  0
 15 41  1  0  0  0  0
M  END
> <id>
3464

> <casrn>
111-82-0

> <smiles (First)>


> <Molecular weight>
214.34434509277344

> <name>
methyl dodecanoate

> <Outcome>
0

> <Molecule (RDKit Mol) (InChI Code)>
InChI=1S/C13H26O2/c1-3-4-5-6-7-8-9-10-11-12-13(14)15-2/h3-12H2,1-2H3

> <reference>
ECHA

> <molecule_form>
A

$$$$

  Mrv1812 01171911372D          

 18 18  0  0  0  0            999 V2000
    0.7145    2.0625    0.0000 C   0  0  0  0  0  0  0  0  0  0  0  0
    0.7145    1.2375    0.0000 C   0  0  0  0  0  0  0  0  0  0  0  0
    1.4290    0.8250    0.0000 C   0  0  0  0  0  0  0  0  0  0  0  0
    1.4290   -0.0000    0.0000 C   0  0  0  0  0  0  0  0  0  0  0  0
    0.7145   -0.4125    0.0000 C   0  0  0  0  0  0  0  0  0  0  0  0
    0.7145   -1.2375    0.0000 C   0  0  0  0  0  0  0  0  0  0  0  0
    0.0000    0.0000    0.0000 C   0  0  0  0  0  0  0  0  0  0  0  0
    0.0000    0.8250    0.0000 C   0  0  0  0  0  0  0  0  0  0  0  0
    1.5395    2.0625    0.0000 H   0  0  0  0  0  0  0  0  0  0  0  0
    0.7145    2.8875    0.0000 H   0  0  0  0  0  0  0  0  0  0  0  0
   -0.1105    2.0625    0.0000 H   0  0  0  0  0  0  0  0  0  0  0  0
    2.1434    1.2375    0.0000 H   0  0  0  0  0  0  0  0  0  0  0  0
    2.1434   -0.4125    0.0000 H   0  0  0  0  0  0  0  0  0  0  0  0
   -0.1105   -1.2375    0.0000 H   0  0  0  0  0  0  0  0  0  0  0  0
    0.7145   -2.0625    0.0000 H   0  0  0  0  0  0  0  0  0  0  0  0
    1.5395   -1.2375    0.0000 H   0  0  0  0  0  0  0  0  0  0  0  0
   -0.7144   -0.4125    0.0000 H   0  0  0  0  0  0  0  0  0  0  0  0
   -0.7144    1.2375    0.0000 H   0  0  0  0  0  0  0  0  0  0  0  0
  1  2  1  0  0  0  0
  2  3  4  0  0  0  0
  3  4  4  0  0  0  0
  4  5  4  0  0  0  0
  5  6  1  0  0  0  0
  5  7  4  0  0  0  0
  7  8  4  0  0  0  0
  2  8  4  0  0  0  0
  1  9  1  0  0  0  0
  1 10  1  0  0  0  0
  1 11  1  0  0  0  0
  3 12  1  0  0  0  0
  4 13  1  0  0  0  0
  6 14  1  0  0  0  0
  6 15  1  0  0  0  0
  6 16  1  0  0  0  0
  7 17  1  0  0  0  0
  8 18  1  0  0  0  0
M  END
> <id>
1070; 1067; 1069; 1066; 1071; 1063; 1068; 1064; 1065

> <casrn>
106-42-3

> <smiles (First)>


> <Molecular weight>
106.16500091552733

> <name>
1,4-xylene

> <Outcome>
0

> <Molecule (RDKit Mol) (InChI Code)>
InChI=1S/C8H10/c1-7-3-5-8(2)6-4-7/h3-6H,1-2H3

> <reference>
ECHA

> <molecule_form>
V

$$$$

  Mrv1812 01171911372D          

  6  5  0  0  0  0            999 V2000
    1.2375    0.7145    0.0000 F   0  0  0  0  0  0  0  0  0  0  0  0
    0.8250   -0.0000    0.0000 C   0  0  0  0  0  0  0  0  0  0  0  0
    1.2375   -0.7145    0.0000 F   0  0  0  0  0  0  0  0  0  0  0  0
    0.0000   -0.0000    0.0000 C   0  0  0  0  0  0  0  0  0  0  0  0
   -0.4125   -0.7145    0.0000 F   0  0  0  0  0  0  0  0  0  0  0  0
   -0.4125    0.7145    0.0000 Cl  0  0  0  0  0  0  0  0  0  0  0  0
  1  2  1  0  0  0  0
  2  3  1  0  0  0  0
  2  4  2  0  0  0  0
  4  5  1  0  0  0  0
  4  6  1  0  0  0  0
M  END
> <id>
1125

> <casrn>
79-38-9

> <smiles (First)>


> <Molecular weight>
116.46961212158203

> <name>
1-chloro-1,2,2-trifluoroethene

> <Outcome>
1

> <Molecule (RDKit Mol) (InChI Code)>
InChI=1S/C2ClF3/c3-1(4)2(5)6

> <reference>
ECHA

> <molecule_form>
G

$$$$

  Mrv1812 01171911372D          

 13 12  0  0  0  0            999 V2000
    1.2403    0.7145    0.0000 C   0  0  0  0  0  0  0  0  0  0  0  0
    0.8278    0.0000    0.0000 C   0  0  0  0  0  0  0  0  0  0  0  0
    0.0028    0.0000    0.0000 C   0  0  0  0  0  0  0  0  0  0  0  0
   -0.4097   -0.7145    0.0000 C   0  0  0  0  0  0  0  0  0  0  0  0
    0.0028   -1.4289    0.0000 C   0  0  0  0  0  0  0  0  0  0  0  0
    0.4153   -2.1434    0.0000 N   0  0  0  0  0  0  0  0  0  0  0  0
    1.9547    0.3020    0.0000 H   0  0  0  0  0  0  0  0  0  0  0  0
    1.6528    1.4289    0.0000 H   0  0  0  0  0  0  0  0  0  0  0  0
    0.5258    1.1270    0.0000 H   0  0  0  0  0  0  0  0  0  0  0  0
    1.2403   -0.7145    0.0000 H   0  0  0  0  0  0  0  0  0  0  0  0
   -0.4097    0.7145    0.0000 H   0  0  0  0  0  0  0  0  0  0  0  0
   -1.1470   -0.3442    0.0000 H   0  0  0  0  0  0  0  0  0  0  0  0
   -1.1470   -1.0847    0.0000 H   0  0  0  0  0  0  0  0  0  0  0  0
  2  1  1  4  0  0  0
  2  3  2  0  0  0  0
  3  4  1  0  0  0  0
  4  5  1  0  0  0  0
  5  6  3  0  0  0  0
  1  7  1  0  0  0  0
  1  8  1  0  0  0  0
  1  9  1  0  0  0  0
  2 10  1  0  0  0  0
  3 11  1  0  0  0  0
  4 12  1  0  0  0  0
  4 13  1  0  0  0  0
M  END
> <id>
3686

> <casrn>
4635-87-4

> <smiles (First)>


> <Molecular weight>
81.11578369140625

> <name>
pent-3-enenitrile

> <Outcome>
1

> <Molecule (RDKit Mol) (InChI Code)>
InChI=1S/C5H7N/c1-2-3-4-5-6/h2-3H,4H2,1H3

> <reference>
ECHA

> <molecule_form>
V

$$$$

  Mrv1812 01171911372D          

 41 40  0  0  0  0            999 V2000
    2.7869    0.7596    0.0000 C   0  0  0  0  0  0  0  0  0  0  0  0
    2.0724    0.3471    0.0000 O   0  0  0  0  0  0  0  0  0  0  0  0
    1.3579    0.7596    0.0000 Si  0  0  0  0  0  0  0  0  0  0  0  0
    0.6434    1.1721    0.0000 C   0  0  0  0  0  0  0  0  0  0  0  0
    0.6434    1.9971    0.0000 C   0  0  0  0  0  0  0  0  0  0  0  0
   -0.0710    2.4096    0.0000 C   0  0  0  0  0  0  0  0  0  0  0  0
    1.3579    2.4096    0.0000 C   0  0  0  0  0  0  0  0  0  0  0  0
    1.3579    3.2346    0.0000 C   0  0  0  0  0  0  0  0  0  0  0  0
    1.3579    4.0596    0.0000 C   0  0  0  0  0  0  0  0  0  0  0  0
    2.1829    3.2346    0.0000 C   0  0  0  0  0  0  0  0  0  0  0  0
    0.5329    3.2346    0.0000 C   0  0  0  0  0  0  0  0  0  0  0  0
    1.7704    1.4741    0.0000 O   0  0  0  0  0  0  0  0  0  0  0  0
    2.5954    1.4741    0.0000 C   0  0  0  0  0  0  0  0  0  0  0  0
    0.9454    0.0451    0.0000 O   0  0  0  0  0  0  0  0  0  0  0  0
    0.1204    0.0451    0.0000 C   0  0  0  0  0  0  0  0  0  0  0  0
    2.8408   -0.0636    0.0000 H   0  0  0  0  0  0  0  0  0  0  0  0
    3.5491    0.4439    0.0000 H   0  0  0  0  0  0  0  0  0  0  0  0
    3.4071    1.3036    0.0000 H   0  0  0  0  0  0  0  0  0  0  0  0
   -0.1802    1.1241    0.0000 H   0  0  0  0  0  0  0  0  0  0  0  0
    0.1901    0.4828    0.0000 H   0  0  0  0  0  0  0  0  0  0  0  0
   -0.0710    1.5846    0.0000 H   0  0  0  0  0  0  0  0  0  0  0  0
    0.5123    2.9930    0.0000 H   0  0  0  0  0  0  0  0  0  0  0  0
   -0.4835    3.1241    0.0000 H   0  0  0  0  0  0  0  0  0  0  0  0
   -0.8679    2.1961    0.0000 H   0  0  0  0  0  0  0  0  0  0  0  0
    1.8113    1.7203    0.0000 H   0  0  0  0  0  0  0  0  0  0  0  0
    2.1815    2.3616    0.0000 H   0  0  0  0  0  0  0  0  0  0  0  0
    2.1829    4.0596    0.0000 H   0  0  0  0  0  0  0  0  0  0  0  0
    1.3579    4.8846    0.0000 H   0  0  0  0  0  0  0  0  0  0  0  0
    0.5329    4.0596    0.0000 H   0  0  0  0  0  0  0  0  0  0  0  0
    2.7656    2.6506    0.0000 H   0  0  0  0  0  0  0  0  0  0  0  0
    3.0079    3.2340    0.0000 H   0  0  0  0  0  0  0  0  0  0  0  0
    2.7665    3.8177    0.0000 H   0  0  0  0  0  0  0  0  0  0  0  0
   -0.0379    3.8302    0.0000 H   0  0  0  0  0  0  0  0  0  0  0  0
   -0.2913    3.2697    0.0000 H   0  0  0  0  0  0  0  0  0  0  0  0
   -0.0864    2.6896    0.0000 H   0  0  0  0  0  0  0  0  0  0  0  0
    3.1656    2.0703    0.0000 H   0  0  0  0  0  0  0  0  0  0  0  0
    2.3899    2.2731    0.0000 H   0  0  0  0  0  0  0  0  0  0  0  0
    2.0932    0.8196    0.0000 H   0  0  0  0  0  0  0  0  0  0  0  0
   -0.5992    0.4487    0.0000 H   0  0  0  0  0  0  0  0  0  0  0  0
   -0.5071   -0.4904    0.0000 H   0  0  0  0  0  0  0  0  0  0  0  0
    0.4058   -0.7289    0.0000 H   0  0  0  0  0  0  0  0  0  0  0  0
  1  2  1  0  0  0  0
  2  3  1  0  0  0  0
  3  4  1  0  0  0  0
  4  5  1  0  0  0  0
  5  6  1  0  0  0  0
  5  7  1  0  0  0  0
  7  8  1  0  0  0  0
  8  9  1  0  0  0  0
  8 10  1  0  0  0  0
  8 11  1  0  0  0  0
  3 12  1  0  0  0  0
 12 13  1  0  0  0  0
  3 14  1  0  0  0  0
 14 15  1  0  0  0  0
  1 16  1  0  0  0  0
  1 17  1  0  0  0  0
  1 18  1  0  0  0  0
  4 19  1  0  0  0  0
  4 20  1  0  0  0  0
  5 21  1  0  0  0  0
  6 22  1  0  0  0  0
  6 23  1  0  0  0  0
  6 24  1  0  0  0  0
  7 25  1  0  0  0  0
  7 26  1  0  0  0  0
  9 27  1  0  0  0  0
  9 28  1  0  0  0  0
  9 29  1  0  0  0  0
 10 30  1  0  0  0  0
 10 31  1  0  0  0  0
 10 32  1  0  0  0  0
 11 33  1  0  0  0  0
 11 34  1  0  0  0  0
 11 35  1  0  0  0  0
 13 36  1  0  0  0  0
 13 37  1  0  0  0  0
 13 38  1  0  0  0  0
 15 39  1  0  0  0  0
 15 40  1  0  0  0  0
 15 41  1  0  0  0  0
M  END
> <id>
4081

> <casrn>
34396-03-7

> <smiles (First)>


> <Molecular weight>
234.40785217285156

> <name>
trimethoxy(2,4,4-trimethylpentyl)silane

> <Outcome>
0

> <Molecule (RDKit Mol) (InChI Code)>
InChI=1S/C11H26O3Si/c1-10(8-11(2,3)4)9-15(12-5,13-6)14-7/h10H,8-9H2,1-7H3

> <reference>
ECHA

> <molecule_form>
A

$$$$

  Mrv1812 01171911372D          

 50 49  0  0  0  0            999 V2000
    2.2371    0.6870    0.0000 C   0  0  0  0  0  0  0  0  0  0  0  0
    2.2371    1.5120    0.0000 C   0  0  0  0  0  0  0  0  0  0  0  0
    1.5226    1.9245    0.0000 O   0  0  0  0  0  0  0  0  0  0  0  0
    0.8082    1.5120    0.0000 Si  0  0  0  0  0  0  0  0  0  0  0  0
    0.0937    1.0995    0.0000 C   0  0  0  0  0  0  0  0  0  0  0  0
   -0.6208    1.5120    0.0000 C   0  0  0  0  0  0  0  0  0  0  0  0
   -1.3352    1.0995    0.0000 C   0  0  0  0  0  0  0  0  0  0  0  0
   -0.6208    2.3370    0.0000 C   0  0  0  0  0  0  0  0  0  0  0  0
   -1.3352    2.7495    0.0000 C   0  0  0  0  0  0  0  0  0  0  0  0
   -2.0497    3.1620    0.0000 C   0  0  0  0  0  0  0  0  0  0  0  0
   -0.9227    3.4640    0.0000 C   0  0  0  0  0  0  0  0  0  0  0  0
   -1.7477    2.0351    0.0000 C   0  0  0  0  0  0  0  0  0  0  0  0
    0.3957    2.2265    0.0000 O   0  0  0  0  0  0  0  0  0  0  0  0
    0.8082    2.9410    0.0000 C   0  0  0  0  0  0  0  0  0  0  0  0
    1.6332    2.9410    0.0000 C   0  0  0  0  0  0  0  0  0  0  0  0
    1.2207    0.7976    0.0000 O   0  0  0  0  0  0  0  0  0  0  0  0
    0.8082    0.0831    0.0000 C   0  0  0  0  0  0  0  0  0  0  0  0
   -0.0168    0.0831    0.0000 C   0  0  0  0  0  0  0  0  0  0  0  0
    1.4121    0.6870    0.0000 H   0  0  0  0  0  0  0  0  0  0  0  0
    2.2371   -0.1380    0.0000 H   0  0  0  0  0  0  0  0  0  0  0  0
    3.0621    0.6870    0.0000 H   0  0  0  0  0  0  0  0  0  0  0  0
    3.0607    1.5600    0.0000 H   0  0  0  0  0  0  0  0  0  0  0  0
    2.6905    2.2013    0.0000 H   0  0  0  0  0  0  0  0  0  0  0  0
   -0.2766    0.3623    0.0000 H   0  0  0  0  0  0  0  0  0  0  0  0
    0.4640    0.3623    0.0000 H   0  0  0  0  0  0  0  0  0  0  0  0
   -0.6208    0.6870    0.0000 H   0  0  0  0  0  0  0  0  0  0  0  0
   -1.5488    1.8964    0.0000 H   0  0  0  0  0  0  0  0  0  0  0  0
   -2.1602    1.0995    0.0000 H   0  0  0  0  0  0  0  0  0  0  0  0
   -1.5488    0.3026    0.0000 H   0  0  0  0  0  0  0  0  0  0  0  0
    0.2028    2.3850    0.0000 H   0  0  0  0  0  0  0  0  0  0  0  0
   -0.1674    3.0263    0.0000 H   0  0  0  0  0  0  0  0  0  0  0  0
   -1.6372    3.8765    0.0000 H   0  0  0  0  0  0  0  0  0  0  0  0
   -2.7642    3.5745    0.0000 H   0  0  0  0  0  0  0  0  0  0  0  0
   -2.4622    2.4476    0.0000 H   0  0  0  0  0  0  0  0  0  0  0  0
   -0.1256    3.6766    0.0000 H   0  0  0  0  0  0  0  0  0  0  0  0
   -0.5097    4.1781    0.0000 H   0  0  0  0  0  0  0  0  0  0  0  0
   -1.1360    4.2610    0.0000 H   0  0  0  0  0  0  0  0  0  0  0  0
   -2.5490    1.8385    0.0000 H   0  0  0  0  0  0  0  0  0  0  0  0
   -2.1902    1.3387    0.0000 H   0  0  0  0  0  0  0  0  0  0  0  0
   -1.5854    1.2262    0.0000 H   0  0  0  0  0  0  0  0  0  0  0  0
    0.8578    3.7645    0.0000 H   0  0  0  0  0  0  0  0  0  0  0  0
    0.2146    3.5139    0.0000 H   0  0  0  0  0  0  0  0  0  0  0  0
    1.6332    2.1160    0.0000 H   0  0  0  0  0  0  0  0  0  0  0  0
    2.4582    2.9410    0.0000 H   0  0  0  0  0  0  0  0  0  0  0  0
    1.6332    3.7660    0.0000 H   0  0  0  0  0  0  0  0  0  0  0  0
    0.7722   -0.7411    0.0000 H   0  0  0  0  0  0  0  0  0  0  0  0
    1.4164   -0.4743    0.0000 H   0  0  0  0  0  0  0  0  0  0  0  0
   -0.8260   -0.0779    0.0000 H   0  0  0  0  0  0  0  0  0  0  0  0
   -0.3325   -0.6791    0.0000 H   0  0  0  0  0  0  0  0  0  0  0  0
    0.4415   -0.6029    0.0000 H   0  0  0  0  0  0  0  0  0  0  0  0
  1  2  1  0  0  0  0
  2  3  1  0  0  0  0
  3  4  1  0  0  0  0
  4  5  1  0  0  0  0
  5  6  1  0  0  0  0
  6  7  1  0  0  0  0
  6  8  1  0  0  0  0
  8  9  1  0  0  0  0
  9 10  1  0  0  0  0
  9 11  1  0  0  0  0
  9 12  1  0  0  0  0
  4 13  1  0  0  0  0
 13 14  1  0  0  0  0
 14 15  1  0  0  0  0
  4 16  1  0  0  0  0
 16 17  1  0  0  0  0
 17 18  1  0  0  0  0
  1 19  1  0  0  0  0
  1 20  1  0  0  0  0
  1 21  1  0  0  0  0
  2 22  1  0  0  0  0
  2 23  1  0  0  0  0
  5 24  1  0  0  0  0
  5 25  1  0  0  0  0
  6 26  1  0  0  0  0
  7 27  1  0  0  0  0
  7 28  1  0  0  0  0
  7 29  1  0  0  0  0
  8 30  1  0  0  0  0
  8 31  1  0  0  0  0
 10 32  1  0  0  0  0
 10 33  1  0  0  0  0
 10 34  1  0  0  0  0
 11 35  1  0  0  0  0
 11 36  1  0  0  0  0
 11 37  1  0  0  0  0
 12 38  1  0  0  0  0
 12 39  1  0  0  0  0
 12 40  1  0  0  0  0
 14 41  1  0  0  0  0
 14 42  1  0  0  0  0
 15 43  1  0  0  0  0
 15 44  1  0  0  0  0
 15 45  1  0  0  0  0
 17 46  1  0  0  0  0
 17 47  1  0  0  0  0
 18 48  1  0  0  0  0
 18 49  1  0  0  0  0
 18 50  1  0  0  0  0
M  END
> <id>
4059

> <casrn>
35435-21-3

> <smiles (First)>


> <Molecular weight>
276.4875793457031

> <name>
triethoxy(2,4,4-trimethylpentyl)silane

> <Outcome>
0

> <Molecule (RDKit Mol) (InChI Code)>
InChI=1S/C14H32O3Si/c1-8-15-18(16-9-2,17-10-3)12-13(4)11-14(5,6)7/h13H,8-12H2,1-7H3

> <reference>
ECHA

> <molecule_form>
A

$$$$

  Mrv1812 01171911372D          

 19 18  0  0  0  0            999 V2000
    1.7605    1.8432    0.0000 C   0  0  0  0  0  0  0  0  0  0  0  0
    2.4750    1.4307    0.0000 C   0  0  0  0  0  0  0  0  0  0  0  0
    3.1895    1.8432    0.0000 O   0  0  0  0  0  0  0  0  0  0  0  0
    3.9039    1.4307    0.0000 C   0  0  0  0  0  0  0  0  0  0  0  0
    4.6184    1.8432    0.0000 C   0  0  0  0  0  0  0  0  0  0  0  0
    5.3329    1.4307    0.0000 C   0  0  0  0  0  0  0  0  0  0  0  0
    6.0474    1.8432    0.0000 C   0  0  0  0  0  0  0  0  0  0  0  0
    1.7605    2.6682    0.0000 H   0  0  0  0  0  0  0  0  0  0  0  0
    1.0461    1.4307    0.0000 H   0  0  0  0  0  0  0  0  0  0  0  0
    2.4750    0.6057    0.0000 H   0  0  0  0  0  0  0  0  0  0  0  0
    3.5337    0.6935    0.0000 H   0  0  0  0  0  0  0  0  0  0  0  0
    4.2742    0.6935    0.0000 H   0  0  0  0  0  0  0  0  0  0  0  0
    4.9887    2.5805    0.0000 H   0  0  0  0  0  0  0  0  0  0  0  0
    4.2482    2.5805    0.0000 H   0  0  0  0  0  0  0  0  0  0  0  0
    4.9626    0.6935    0.0000 H   0  0  0  0  0  0  0  0  0  0  0  0
    5.7031    0.6935    0.0000 H   0  0  0  0  0  0  0  0  0  0  0  0
    6.4599    1.1288    0.0000 H   0  0  0  0  0  0  0  0  0  0  0  0
    6.7618    2.2557    0.0000 H   0  0  0  0  0  0  0  0  0  0  0  0
    5.6349    2.5577    0.0000 H   0  0  0  0  0  0  0  0  0  0  0  0
  1  2  2  0  0  0  0
  2  3  1  0  0  0  0
  3  4  1  0  0  0  0
  4  5  1  0  0  0  0
  5  6  1  0  0  0  0
  6  7  1  0  0  0  0
  1  8  1  0  0  0  0
  1  9  1  0  0  0  0
  2 10  1  0  0  0  0
  4 11  1  0  0  0  0
  4 12  1  0  0  0  0
  5 13  1  0  0  0  0
  5 14  1  0  0  0  0
  6 15  1  0  0  0  0
  6 16  1  0  0  0  0
  7 17  1  0  0  0  0
  7 18  1  0  0  0  0
  7 19  1  0  0  0  0
M  END
> <id>
1094

> <casrn>
111-34-2

> <smiles (First)>


> <Molecular weight>
100.15888214111328

> <name>
1-(ethenyloxy)butane

> <Outcome>
0

> <Molecule (RDKit Mol) (InChI Code)>
InChI=1S/C6H12O/c1-3-5-6-7-4-2/h4H,2-3,5-6H2,1H3

> <reference>
ECHA

> <molecule_form>
V

$$$$

  Mrv1812 01171911372D          

 14 13  0  0  0  0            999 V2000
    2.4738   -1.4311    0.0000 C   0  0  0  0  0  0  0  0  0  0  0  0
    2.0613   -0.7167    0.0000 C   0  0  0  0  0  0  0  0  0  0  0  0
    1.2363   -0.7167    0.0000 C   0  0  0  0  0  0  0  0  0  0  0  0
    0.8238   -0.0022    0.0000 C   0  0  0  0  0  0  0  0  0  0  0  0
   -0.0012   -0.0022    0.0000 Cl  0  0  0  0  0  0  0  0  0  0  0  0
    1.7593   -1.8436    0.0000 H   0  0  0  0  0  0  0  0  0  0  0  0
    2.8863   -2.1456    0.0000 H   0  0  0  0  0  0  0  0  0  0  0  0
    3.1882   -1.0186    0.0000 H   0  0  0  0  0  0  0  0  0  0  0  0
    2.7505   -0.2633    0.0000 H   0  0  0  0  0  0  0  0  0  0  0  0
    2.1092    0.1069    0.0000 H   0  0  0  0  0  0  0  0  0  0  0  0
    0.5470   -1.1700    0.0000 H   0  0  0  0  0  0  0  0  0  0  0  0
    1.1883   -1.5403    0.0000 H   0  0  0  0  0  0  0  0  0  0  0  0
    1.5130    0.4512    0.0000 H   0  0  0  0  0  0  0  0  0  0  0  0
    0.8717    0.8214    0.0000 H   0  0  0  0  0  0  0  0  0  0  0  0
  1  2  1  0  0  0  0
  2  3  1  0  0  0  0
  3  4  1  0  0  0  0
  4  5  1  0  0  0  0
  1  6  1  0  0  0  0
  1  7  1  0  0  0  0
  1  8  1  0  0  0  0
  2  9  1  0  0  0  0
  2 10  1  0  0  0  0
  3 11  1  0  0  0  0
  3 12  1  0  0  0  0
  4 13  1  0  0  0  0
  4 14  1  0  0  0  0
M  END
> <id>
1151

> <casrn>
109-69-3

> <smiles (First)>


> <Molecular weight>
92.5672607421875

> <name>
1-chlorobutane

> <Outcome>
0

> <Molecule (RDKit Mol) (InChI Code)>
InChI=1S/C4H9Cl/c1-2-3-4-5/h2-4H2,1H3

> <reference>
ECHA

> <molecule_form>
A

$$$$

  Mrv1812 01171911372D          

  7  6  0  0  0  0            999 V2000
    2.0599   -0.7189    0.0000 O   0  0  0  0  0  0  0  0  0  0  0  0
    1.2349   -0.7189    0.0000 C   0  0  0  0  0  0  0  0  0  0  0  0
    0.8224   -1.4333    0.0000 Cl  0  0  0  0  0  0  0  0  0  0  0  0
    0.8224   -0.0044    0.0000 C   0  0  0  0  0  0  0  0  0  0  0  0
   -0.0026   -0.0044    0.0000 Cl  0  0  0  0  0  0  0  0  0  0  0  0
    1.5117    0.4490    0.0000 H   0  0  0  0  0  0  0  0  0  0  0  0
    0.8704    0.8192    0.0000 H   0  0  0  0  0  0  0  0  0  0  0  0
  1  2  2  0  0  0  0
  2  3  1  0  0  0  0
  2  4  1  0  0  0  0
  4  5  1  0  0  0  0
  4  6  1  0  0  0  0
  4  7  1  0  0  0  0
M  END
> <id>
2792; 2790

> <casrn>
79-04-9

> <smiles (First)>


> <Molecular weight>
112.94268035888672

> <name>
chloroacetyl chloride

> <Outcome>
1

> <Molecule (RDKit Mol) (InChI Code)>
InChI=1S/C2H2Cl2O/c3-1-2(4)5/h1H2

> <reference>
ECHA

> <molecule_form>
V

$$$$

  Mrv1812 01171911372D          

 42 44  0  0  0  0            999 V2000
   -3.5121    7.9292    0.0000 C   0  0  0  0  0  0  0  0  0  0  0  0
   -2.7976    7.5167    0.0000 C   0  0  0  0  0  0  0  0  0  0  0  0
   -2.7976    6.6917    0.0000 C   0  0  0  0  0  0  0  0  0  0  0  0
   -2.0831    6.2792    0.0000 C   0  0  0  0  0  0  0  0  0  0  0  0
   -2.0831    5.4542    0.0000 O   0  0  0  0  0  0  0  0  0  0  0  0
   -1.3686    5.0417    0.0000 C   0  0  0  0  0  0  0  0  0  0  0  0
   -1.3686    4.2167    0.0000 C   0  0  0  0  0  0  0  0  0  0  0  0
   -0.9561    3.5023    0.0000 C   0  0  0  0  0  0  0  0  0  0  0  0
   -1.7811    3.5023    0.0000 O   0  0  0  0  0  0  0  0  0  0  0  0
   -3.5121    6.2792    0.0000 C   0  0  0  0  0  0  0  0  0  0  0  0
   -4.2265    6.6917    0.0000 C   0  0  0  0  0  0  0  0  0  0  0  0
   -4.2265    7.5167    0.0000 C   0  0  0  0  0  0  0  0  0  0  0  0
   -4.9410    7.9292    0.0000 C   0  0  0  0  0  0  0  0  0  0  0  0
   -4.9410    8.7542    0.0000 O   0  0  0  0  0  0  0  0  0  0  0  0
   -5.6555    9.1667    0.0000 C   0  0  0  0  0  0  0  0  0  0  0  0
   -5.6555    9.9917    0.0000 C   0  0  0  0  0  0  0  0  0  0  0  0
   -6.0680   10.7062    0.0000 C   0  0  0  0  0  0  0  0  0  0  0  0
   -5.2430   10.7062    0.0000 O   0  0  0  0  0  0  0  0  0  0  0  0
   -3.1418    8.6665    0.0000 H   0  0  0  0  0  0  0  0  0  0  0  0
   -3.8823    8.6665    0.0000 H   0  0  0  0  0  0  0  0  0  0  0  0
   -1.9740    7.5647    0.0000 H   0  0  0  0  0  0  0  0  0  0  0  0
   -2.3442    8.2060    0.0000 H   0  0  0  0  0  0  0  0  0  0  0  0
   -2.7976    5.8667    0.0000 H   0  0  0  0  0  0  0  0  0  0  0  0
   -1.2595    6.3272    0.0000 H   0  0  0  0  0  0  0  0  0  0  0  0
   -1.6298    6.9685    0.0000 H   0  0  0  0  0  0  0  0  0  0  0  0
   -0.5450    5.0897    0.0000 H   0  0  0  0  0  0  0  0  0  0  0  0
   -0.9153    5.7310    0.0000 H   0  0  0  0  0  0  0  0  0  0  0  0
   -2.1655    4.4303    0.0000 H   0  0  0  0  0  0  0  0  0  0  0  0
   -0.5859    2.7650    0.0000 H   0  0  0  0  0  0  0  0  0  0  0  0
   -0.1325    3.5502    0.0000 H   0  0  0  0  0  0  0  0  0  0  0  0
   -4.1440    5.7489    0.0000 H   0  0  0  0  0  0  0  0  0  0  0  0
   -3.6553    5.4668    0.0000 H   0  0  0  0  0  0  0  0  0  0  0  0
   -5.0109    6.9474    0.0000 H   0  0  0  0  0  0  0  0  0  0  0  0
   -4.9856    6.3687    0.0000 H   0  0  0  0  0  0  0  0  0  0  0  0
   -4.2265    8.3417    0.0000 H   0  0  0  0  0  0  0  0  0  0  0  0
   -5.7646    7.8813    0.0000 H   0  0  0  0  0  0  0  0  0  0  0  0
   -5.3943    7.2400    0.0000 H   0  0  0  0  0  0  0  0  0  0  0  0
   -6.4791    9.1188    0.0000 H   0  0  0  0  0  0  0  0  0  0  0  0
   -6.1088    8.4775    0.0000 H   0  0  0  0  0  0  0  0  0  0  0  0
   -4.8586    9.7782    0.0000 H   0  0  0  0  0  0  0  0  0  0  0  0
   -6.4382   11.4435    0.0000 H   0  0  0  0  0  0  0  0  0  0  0  0
   -6.8916   10.6582    0.0000 H   0  0  0  0  0  0  0  0  0  0  0  0
  1  2  1  0  0  0  0
  2  3  1  0  0  0  0
  3  4  1  0  0  0  0
  4  5  1  0  0  0  0
  5  6  1  0  0  0  0
  6  7  1  0  0  0  0
  7  8  1  0  0  0  0
  8  9  1  0  0  0  0
  7  9  1  0  0  0  0
  3 10  1  0  0  0  0
 10 11  1  0  0  0  0
 11 12  1  0  0  0  0
  1 12  1  0  0  0  0
 12 13  1  0  0  0  0
 13 14  1  0  0  0  0
 14 15  1  0  0  0  0
 15 16  1  0  0  0  0
 16 17  1  0  0  0  0
 17 18  1  0  0  0  0
 16 18  1  0  0  0  0
  1 19  1  0  0  0  0
  1 20  1  0  0  0  0
  2 21  1  0  0  0  0
  2 22  1  0  0  0  0
  3 23  1  0  0  0  0
  4 24  1  0  0  0  0
  4 25  1  0  0  0  0
  6 26  1  0  0  0  0
  6 27  1  0  0  0  0
  7 28  1  0  0  0  0
  8 29  1  0  0  0  0
  8 30  1  0  0  0  0
 10 31  1  0  0  0  0
 10 32  1  0  0  0  0
 11 33  1  0  0  0  0
 11 34  1  0  0  0  0
 12 35  1  0  0  0  0
 13 36  1  0  0  0  0
 13 37  1  0  0  0  0
 15 38  1  0  0  0  0
 15 39  1  0  0  0  0
 16 40  1  0  0  0  0
 17 41  1  0  0  0  0
 17 42  1  0  0  0  0
M  END
> <id>
1401

> <casrn>
14228-73-0

> <smiles (First)>


> <Molecular weight>
256.33795166015625

> <name>
2-[({4-[(oxiran-2-ylmethoxy)methyl]cyclohexyl}methoxy)methyl]oxirane

> <Outcome>
0

> <Molecule (RDKit Mol) (InChI Code)>
InChI=1S/C14H24O4/c1-2-12(6-16-8-14-10-18-14)4-3-11(1)5-15-7-13-9-17-13/h11-14H,1-10H2

> <reference>
ECHA

> <molecule_form>
A

$$$$

  Mrv1812 01171911372D          

 11 11  0  0  0  0            999 V2000
   -0.3297   -0.8227    0.0000 Cl  0  0  0  0  0  0  0  0  0  0  0  0
    0.1553   -0.1553    0.0000 C   0  0  0  0  0  0  0  0  0  0  0  0
   -0.0997    0.6294    0.0000 C   0  0  0  0  0  0  0  0  0  0  0  0
   -0.8843    0.8843    0.0000 Cl  0  0  0  0  0  0  0  0  0  0  0  0
    0.5678    1.1143    0.0000 C   0  0  0  0  0  0  0  0  0  0  0  0
    0.0157    1.7274    0.0000 Cl  0  0  0  0  0  0  0  0  0  0  0  0
    1.1198    1.7274    0.0000 Cl  0  0  0  0  0  0  0  0  0  0  0  0
    1.2352    0.6294    0.0000 C   0  0  0  0  0  0  0  0  0  0  0  0
    2.0198    0.8843    0.0000 Cl  0  0  0  0  0  0  0  0  0  0  0  0
    0.9803   -0.1553    0.0000 C   0  0  0  0  0  0  0  0  0  0  0  0
    1.4652   -0.8227    0.0000 Cl  0  0  0  0  0  0  0  0  0  0  0  0
  1  2  1  0  0  0  0
  2  3  2  0  0  0  0
  3  4  1  0  0  0  0
  3  5  1  0  0  0  0
  5  6  1  0  0  0  0
  5  7  1  0  0  0  0
  5  8  1  0  0  0  0
  8  9  1  0  0  0  0
  8 10  2  0  0  0  0
  2 10  1  0  0  0  0
 10 11  1  0  0  0  0
M  END
> <id>
3253

> <casrn>
77-47-4

> <smiles (First)>


> <Molecular weight>
272.771484375

> <name>
hexachlorocyclopenta-1,3-diene

> <Outcome>
1

> <Molecule (RDKit Mol) (InChI Code)>
InChI=1S/C5Cl6/c6-1-2(7)4(9)5(10,11)3(1)8

> <reference>
ECHA

> <molecule_form>
V

$$$$

  Mrv1812 01171911372D          

 11 10  0  0  0  0            999 V2000
    2.0609   -0.7173    0.0000 C   0  0  0  0  0  0  0  0  0  0  0  0
    1.2359   -0.7173    0.0000 C   0  0  0  0  0  0  0  0  0  0  0  0
    0.8234   -0.0028    0.0000 C   0  0  0  0  0  0  0  0  0  0  0  0
   -0.0016   -0.0028    0.0000 N   0  0  0  0  0  0  0  0  0  0  0  0
    2.4734   -1.4317    0.0000 H   0  0  0  0  0  0  0  0  0  0  0  0
    2.4734   -0.0028    0.0000 H   0  0  0  0  0  0  0  0  0  0  0  0
    0.8234   -1.4317    0.0000 H   0  0  0  0  0  0  0  0  0  0  0  0
    1.5127    0.4505    0.0000 H   0  0  0  0  0  0  0  0  0  0  0  0
    0.8714    0.8208    0.0000 H   0  0  0  0  0  0  0  0  0  0  0  0
   -0.4141    0.7117    0.0000 H   0  0  0  0  0  0  0  0  0  0  0  0
   -0.4141   -0.7173    0.0000 H   0  0  0  0  0  0  0  0  0  0  0  0
  1  2  2  0  0  0  0
  2  3  1  0  0  0  0
  3  4  1  0  0  0  0
  1  5  1  0  0  0  0
  1  6  1  0  0  0  0
  2  7  1  0  0  0  0
  3  8  1  0  0  0  0
  3  9  1  0  0  0  0
  4 10  1  0  0  0  0
  4 11  1  0  0  0  0
M  END
> <id>
3765

> <casrn>
107-11-9

> <smiles (First)>


> <Molecular weight>
57.09437942504883

> <name>
prop-2-en-1-amine

> <Outcome>
1

> <Molecule (RDKit Mol) (InChI Code)>
InChI=1S/C3H7N/c1-2-3-4/h2H,1,3-4H2

> <reference>
ECHA

> <molecule_form>
V

$$$$

  Mrv1812 01171911372D          

 17 16  0  0  0  0            999 V2000
    0.0889   -2.2159    0.0000 C   0  0  0  0  0  0  0  0  0  0  0  0
    0.0889   -1.3909    0.0000 C   0  0  0  0  0  0  0  0  0  0  0  0
    0.8034   -0.9784    0.0000 C   0  0  0  0  0  0  0  0  0  0  0  0
    0.8034   -0.1534    0.0000 Si  0  0  0  0  0  0  0  0  0  0  0  0
    0.8034    0.6716    0.0000 O   0  0  0  0  0  0  0  0  0  0  0  0
    1.6284   -0.1534    0.0000 O   0  0  0  0  0  0  0  0  0  0  0  0
   -0.0216   -0.1534    0.0000 O   0  0  0  0  0  0  0  0  0  0  0  0
   -0.7361   -2.2159    0.0000 H   0  0  0  0  0  0  0  0  0  0  0  0
    0.0889   -3.0409    0.0000 H   0  0  0  0  0  0  0  0  0  0  0  0
    0.9139   -2.2159    0.0000 H   0  0  0  0  0  0  0  0  0  0  0  0
   -0.3645   -0.7017    0.0000 H   0  0  0  0  0  0  0  0  0  0  0  0
   -0.7347   -1.3430    0.0000 H   0  0  0  0  0  0  0  0  0  0  0  0
    1.2567   -1.6677    0.0000 H   0  0  0  0  0  0  0  0  0  0  0  0
    1.6270   -1.0264    0.0000 H   0  0  0  0  0  0  0  0  0  0  0  0
    1.5178    1.0841    0.0000 H   0  0  0  0  0  0  0  0  0  0  0  0
    2.2122    0.4295    0.0000 H   0  0  0  0  0  0  0  0  0  0  0  0
   -0.4215    0.5682    0.0000 H   0  0  0  0  0  0  0  0  0  0  0  0
  1  2  1  0  0  0  0
  2  3  1  0  0  0  0
  3  4  1  0  0  0  0
  4  5  1  0  0  0  0
  4  6  1  0  0  0  0
  4  7  1  0  0  0  0
  1  8  1  0  0  0  0
  1  9  1  0  0  0  0
  1 10  1  0  0  0  0
  2 11  1  0  0  0  0
  2 12  1  0  0  0  0
  3 13  1  0  0  0  0
  3 14  1  0  0  0  0
  5 15  1  0  0  0  0
  6 16  1  0  0  0  0
  7 17  1  0  0  0  0
M  END
> <id>
4109

> <casrn>
93857-00-2

> <smiles (First)>


> <Molecular weight>
119.17137908935547

> <name>
tripotassium propylsilanetris(olate)

> <Outcome>
0

> <Molecule (RDKit Mol) (InChI Code)>
InChI=1S/C3H10O3Si/c1-2-3-7(4,5)6/h4-6H,2-3H2,1H3

> <reference>
ECHA

> <molecule_form>
V

$$$$

  Mrv1812 01171911372D          

 10 10  0  0  0  0            999 V2000
   -0.3744    0.5149    0.0000 C   0  0  0  0  0  0  0  0  0  0  0  0
    0.4506    0.5149    0.0000 C   0  0  0  0  0  0  0  0  0  0  0  0
    1.0340    1.0982    0.0000 C   0  0  0  0  0  0  0  0  0  0  0  0
    1.6174    0.5149    0.0000 C   0  0  0  0  0  0  0  0  0  0  0  0
    2.4424    0.5149    0.0000 O   0  0  0  0  0  0  0  0  0  0  0  0
    1.0340   -0.0685    0.0000 O   0  0  0  0  0  0  0  0  0  0  0  0
   -0.7869    1.2293    0.0000 H   0  0  0  0  0  0  0  0  0  0  0  0
   -0.7869   -0.1996    0.0000 H   0  0  0  0  0  0  0  0  0  0  0  0
    1.4465    1.8127    0.0000 H   0  0  0  0  0  0  0  0  0  0  0  0
    0.6215    1.8127    0.0000 H   0  0  0  0  0  0  0  0  0  0  0  0
  1  2  2  0  0  0  0
  2  3  1  0  0  0  0
  3  4  1  0  0  0  0
  4  5  2  0  0  0  0
  4  6  1  0  0  0  0
  2  6  1  0  0  0  0
  1  7  1  0  0  0  0
  1  8  1  0  0  0  0
  3  9  1  0  0  0  0
  3 10  1  0  0  0  0
M  END
> <id>
1846

> <casrn>
674-82-8

> <smiles (First)>


> <Molecular weight>
84.0733642578125

> <name>
4-methyleneoxetan-2-one

> <Outcome>
1

> <Molecule (RDKit Mol) (InChI Code)>
InChI=1S/C4H4O2/c1-3-2-4(5)6-3/h1-2H2

> <reference>
ECHA

> <molecule_form>
A

$$$$

  Mrv1812 01171911372D          

 13 12  0  0  0  0            999 V2000
    2.9509   -0.7972    0.0000 C   0  0  0  0  0  0  0  0  0  0  0  0
    2.1259   -0.7972    0.0000 C   0  0  0  0  0  0  0  0  0  0  0  0
    1.7134   -0.0827    0.0000 C   0  0  0  0  0  0  0  0  0  0  0  0
    2.1259    0.6318    0.0000 C   0  0  0  0  0  0  0  0  0  0  0  0
    0.8884   -0.0827    0.0000 C   0  0  0  0  0  0  0  0  0  0  0  0
    0.0634   -0.0827    0.0000 N   0  0  0  0  0  0  0  0  0  0  0  0
    3.3634   -1.5117    0.0000 H   0  0  0  0  0  0  0  0  0  0  0  0
    3.3634   -0.0827    0.0000 H   0  0  0  0  0  0  0  0  0  0  0  0
    1.7134   -1.5117    0.0000 H   0  0  0  0  0  0  0  0  0  0  0  0
    2.5384   -0.0827    0.0000 H   0  0  0  0  0  0  0  0  0  0  0  0
    2.9228    0.8453    0.0000 H   0  0  0  0  0  0  0  0  0  0  0  0
    2.1259    1.4568    0.0000 H   0  0  0  0  0  0  0  0  0  0  0  0
    1.3290    0.8453    0.0000 H   0  0  0  0  0  0  0  0  0  0  0  0
  1  2  2  0  0  0  0
  2  3  1  0  0  0  0
  3  4  1  0  0  0  0
  3  5  1  0  0  0  0
  5  6  3  0  0  0  0
  1  7  1  0  0  0  0
  1  8  1  0  0  0  0
  2  9  1  0  0  0  0
  3 10  1  0  0  0  0
  4 11  1  0  0  0  0
  4 12  1  0  0  0  0
  4 13  1  0  0  0  0
M  END
> <id>
1511

> <casrn>
16529-56-9

> <smiles (First)>


> <Molecular weight>
81.11578369140625

> <name>
2-methylbut-3-enenitrile

> <Outcome>
1

> <Molecule (RDKit Mol) (InChI Code)>
InChI=1S/C5H7N/c1-3-5(2)4-6/h3,5H,1H2,2H3

> <reference>
ECHA

> <molecule_form>
V

$$$$

  Mrv1812 01171911372D          

 52 52  0  0  0  0            999 V2000
    3.5389   -7.8975    0.0000 C   0  0  0  0  0  0  0  0  0  0  0  0
    4.2533   -7.4850    0.0000 C   0  0  0  0  0  0  0  0  0  0  0  0
    4.9678   -7.8975    0.0000 C   0  0  0  0  0  0  0  0  0  0  0  0
    5.6823   -7.4850    0.0000 C   0  0  0  0  0  0  0  0  0  0  0  0
    6.3967   -7.8975    0.0000 C   0  0  0  0  0  0  0  0  0  0  0  0
    7.1112   -7.4850    0.0000 C   0  0  0  0  0  0  0  0  0  0  0  0
    7.8257   -7.8975    0.0000 C   0  0  0  0  0  0  0  0  0  0  0  0
    8.5401   -7.4850    0.0000 C   0  0  0  0  0  0  0  0  0  0  0  0
    9.2546   -7.8975    0.0000 C   0  0  0  0  0  0  0  0  0  0  0  0
    9.9691   -7.4850    0.0000 C   0  0  0  0  0  0  0  0  0  0  0  0
   10.6836   -7.8975    0.0000 C   0  0  0  0  0  0  0  0  0  0  0  0
   11.3980   -7.4850    0.0000 C   0  0  0  0  0  0  0  0  0  0  0  0
   12.1125   -7.8975    0.0000 C   0  0  0  0  0  0  0  0  0  0  0  0
   12.8270   -7.4850    0.0000 C   0  0  0  0  0  0  0  0  0  0  0  0
   13.5414   -7.8975    0.0000 C   0  0  0  0  0  0  0  0  0  0  0  0
   13.5414   -8.7225    0.0000 C   0  0  0  0  0  0  0  0  0  0  0  0
   12.8270   -9.1350    0.0000 C   0  0  0  0  0  0  0  0  0  0  0  0
   12.1125   -8.7225    0.0000 C   0  0  0  0  0  0  0  0  0  0  0  0
   11.3980   -9.1350    0.0000 S   0  0  0  0  0  0  0  0  0  0  0  0
   10.6836   -9.5475    0.0000 O   0  0  0  0  0  0  0  0  0  0  0  0
   10.9855   -8.4206    0.0000 O   0  0  0  0  0  0  0  0  0  0  0  0
   11.8105   -9.8495    0.0000 O   0  0  0  0  0  0  0  0  0  0  0  0
    3.1264   -7.1831    0.0000 H   0  0  0  0  0  0  0  0  0  0  0  0
    2.8244   -8.3100    0.0000 H   0  0  0  0  0  0  0  0  0  0  0  0
    3.9514   -8.6120    0.0000 H   0  0  0  0  0  0  0  0  0  0  0  0
    4.6236   -6.7478    0.0000 H   0  0  0  0  0  0  0  0  0  0  0  0
    3.8831   -6.7478    0.0000 H   0  0  0  0  0  0  0  0  0  0  0  0
    4.5975   -8.6348    0.0000 H   0  0  0  0  0  0  0  0  0  0  0  0
    5.3381   -8.6348    0.0000 H   0  0  0  0  0  0  0  0  0  0  0  0
    6.0525   -6.7478    0.0000 H   0  0  0  0  0  0  0  0  0  0  0  0
    5.3120   -6.7478    0.0000 H   0  0  0  0  0  0  0  0  0  0  0  0
    6.0265   -8.6348    0.0000 H   0  0  0  0  0  0  0  0  0  0  0  0
    6.7670   -8.6348    0.0000 H   0  0  0  0  0  0  0  0  0  0  0  0
    7.4815   -6.7478    0.0000 H   0  0  0  0  0  0  0  0  0  0  0  0
    6.7409   -6.7478    0.0000 H   0  0  0  0  0  0  0  0  0  0  0  0
    7.4554   -8.6348    0.0000 H   0  0  0  0  0  0  0  0  0  0  0  0
    8.1959   -8.6348    0.0000 H   0  0  0  0  0  0  0  0  0  0  0  0
    8.9104   -6.7478    0.0000 H   0  0  0  0  0  0  0  0  0  0  0  0
    8.1699   -6.7478    0.0000 H   0  0  0  0  0  0  0  0  0  0  0  0
    8.8844   -8.6348    0.0000 H   0  0  0  0  0  0  0  0  0  0  0  0
    9.6249   -8.6348    0.0000 H   0  0  0  0  0  0  0  0  0  0  0  0
   10.3394   -6.7478    0.0000 H   0  0  0  0  0  0  0  0  0  0  0  0
    9.5988   -6.7478    0.0000 H   0  0  0  0  0  0  0  0  0  0  0  0
   10.1002   -8.4809    0.0000 H   0  0  0  0  0  0  0  0  0  0  0  0
   10.6836   -7.0725    0.0000 H   0  0  0  0  0  0  0  0  0  0  0  0
   12.0300   -6.9547    0.0000 H   0  0  0  0  0  0  0  0  0  0  0  0
   11.5413   -6.6726    0.0000 H   0  0  0  0  0  0  0  0  0  0  0  0
   13.2620   -6.7840    0.0000 H   0  0  0  0  0  0  0  0  0  0  0  0
   14.2559   -7.4850    0.0000 H   0  0  0  0  0  0  0  0  0  0  0  0
   14.2559   -9.1350    0.0000 H   0  0  0  0  0  0  0  0  0  0  0  0
   12.8270   -9.9600    0.0000 H   0  0  0  0  0  0  0  0  0  0  0  0
   11.3980  -10.5640    0.0000 H   0  0  0  0  0  0  0  0  0  0  0  0
  1  2  1  0  0  0  0
  2  3  1  0  0  0  0
  3  4  1  0  0  0  0
  4  5  1  0  0  0  0
  5  6  1  0  0  0  0
  6  7  1  0  0  0  0
  7  8  1  0  0  0  0
  8  9  1  0  0  0  0
  9 10  1  0  0  0  0
 10 11  1  0  0  0  0
 11 12  1  0  0  0  0
 12 13  1  0  0  0  0
 13 14  4  0  0  0  0
 14 15  4  0  0  0  0
 15 16  4  0  0  0  0
 16 17  4  0  0  0  0
 17 18  4  0  0  0  0
 13 18  4  0  0  0  0
 18 19  1  0  0  0  0
 19 20  2  0  0  0  0
 19 21  2  0  0  0  0
 19 22  1  0  0  0  0
  1 23  1  0  0  0  0
  1 24  1  0  0  0  0
  1 25  1  0  0  0  0
  2 26  1  0  0  0  0
  2 27  1  0  0  0  0
  3 28  1  0  0  0  0
  3 29  1  0  0  0  0
  4 30  1  0  0  0  0
  4 31  1  0  0  0  0
  5 32  1  0  0  0  0
  5 33  1  0  0  0  0
  6 34  1  0  0  0  0
  6 35  1  0  0  0  0
  7 36  1  0  0  0  0
  7 37  1  0  0  0  0
  8 38  1  0  0  0  0
  8 39  1  0  0  0  0
  9 40  1  0  0  0  0
  9 41  1  0  0  0  0
 10 42  1  0  0  0  0
 10 43  1  0  0  0  0
 11 44  1  0  0  0  0
 11 45  1  0  0  0  0
 12 46  1  0  0  0  0
 12 47  1  0  0  0  0
 14 48  1  0  0  0  0
 15 49  1  0  0  0  0
 16 50  1  0  0  0  0
 17 51  1  0  0  0  0
 22 52  1  0  0  0  0
M  END
> <id>
2763

> <casrn>
26264-06-2

> <smiles (First)>


> <Molecular weight>
325.4860534667969

> <name>
calcium dodecylbenzenesulphonate

> <Outcome>
1

> <Molecule (RDKit Mol) (InChI Code)>
InChI=1S/C18H30O3S/c1-2-3-4-5-6-7-8-9-10-11-14-17-15-12-13-16-18(17)22(19,20)21/h12-13,15-16H,2-11,14H2,1H3,(H,19,20,21)

> <reference>
ECHA

> <molecule_form>
A

$$$$

  Mrv1812 01171911372D          

 14 13  0  0  0  0            999 V2000
   -0.1915    0.7195    0.0000 O   0  0  0  0  0  0  0  0  0  0  0  0
    0.5230    1.1320    0.0000 C   0  0  0  0  0  0  0  0  0  0  0  0
    0.5230    1.9570    0.0000 O   0  0  0  0  0  0  0  0  0  0  0  0
    1.2375    0.7195    0.0000 C   0  0  0  0  0  0  0  0  0  0  0  0
    1.9520    1.1320    0.0000 N   0  0  0  0  0  0  0  0  0  0  0  0
    2.6664    0.7195    0.0000 C   0  0  0  0  0  0  0  0  0  0  0  0
    3.3809    1.1320    0.0000 O   0  0  0  0  0  0  0  0  0  0  0  0
    1.2375    2.3695    0.0000 H   0  0  0  0  0  0  0  0  0  0  0  0
    0.8672   -0.0177    0.0000 H   0  0  0  0  0  0  0  0  0  0  0  0
    1.6077   -0.0177    0.0000 H   0  0  0  0  0  0  0  0  0  0  0  0
    1.9520    1.9570    0.0000 H   0  0  0  0  0  0  0  0  0  0  0  0
    2.2962   -0.0177    0.0000 H   0  0  0  0  0  0  0  0  0  0  0  0
    3.0367   -0.0177    0.0000 H   0  0  0  0  0  0  0  0  0  0  0  0
    4.0954    0.7195    0.0000 H   0  0  0  0  0  0  0  0  0  0  0  0
  1  2  2  0  0  0  0
  2  3  1  0  0  0  0
  2  4  1  0  0  0  0
  4  5  1  0  0  0  0
  5  6  1  0  0  0  0
  6  7  1  0  0  0  0
  3  8  1  0  0  0  0
  4  9  1  0  0  0  0
  4 10  1  0  0  0  0
  5 11  1  0  0  0  0
  6 12  1  0  0  0  0
  6 13  1  0  0  0  0
  7 14  1  0  0  0  0
M  END
> <id>
3848

> <casrn>
70161-44-3

> <smiles (First)>


> <Molecular weight>
104.08464050292969

> <name>
sodium 2-[(hydroxymethyl)amino]acetate

> <Outcome>
0

> <Molecule (RDKit Mol) (InChI Code)>
InChI=1S/C3H7NO3/c5-2-4-1-3(6)7/h4-5H,1-2H2,(H,6,7)

> <reference>
ECHA

> <molecule_form>
A

$$$$

  Mrv1812 01171911372D          

 19 18  0  0  0  0            999 V2000
   -0.1597    0.6845    0.0000 C   0  0  0  0  0  0  0  0  0  0  0  0
    0.5548    1.0970    0.0000 C   0  0  0  0  0  0  0  0  0  0  0  0
    1.2693    0.6845    0.0000 C   0  0  0  0  0  0  0  0  0  0  0  0
    1.9837    1.0970    0.0000 C   0  0  0  0  0  0  0  0  0  0  0  0
    1.9837    1.9220    0.0000 O   0  0  0  0  0  0  0  0  0  0  0  0
    2.6982    0.6845    0.0000 C   0  0  0  0  0  0  0  0  0  0  0  0
    3.4127    1.0970    0.0000 O   0  0  0  0  0  0  0  0  0  0  0  0
   -0.5722    1.3990    0.0000 H   0  0  0  0  0  0  0  0  0  0  0  0
   -0.8741    0.2720    0.0000 H   0  0  0  0  0  0  0  0  0  0  0  0
    0.2528   -0.0299    0.0000 H   0  0  0  0  0  0  0  0  0  0  0  0
    0.9251    1.8343    0.0000 H   0  0  0  0  0  0  0  0  0  0  0  0
    0.1845    1.8343    0.0000 H   0  0  0  0  0  0  0  0  0  0  0  0
    0.8990   -0.0527    0.0000 H   0  0  0  0  0  0  0  0  0  0  0  0
    1.6395   -0.0527    0.0000 H   0  0  0  0  0  0  0  0  0  0  0  0
    1.2693    1.5095    0.0000 H   0  0  0  0  0  0  0  0  0  0  0  0
    2.3962    2.6365    0.0000 H   0  0  0  0  0  0  0  0  0  0  0  0
    2.3280   -0.0527    0.0000 H   0  0  0  0  0  0  0  0  0  0  0  0
    3.0685   -0.0527    0.0000 H   0  0  0  0  0  0  0  0  0  0  0  0
    4.1272    0.6845    0.0000 H   0  0  0  0  0  0  0  0  0  0  0  0
  1  2  1  0  0  0  0
  2  3  1  0  0  0  0
  3  4  1  0  0  0  0
  4  5  1  0  0  0  0
  4  6  1  0  0  0  0
  6  7  1  0  0  0  0
  1  8  1  0  0  0  0
  1  9  1  0  0  0  0
  1 10  1  0  0  0  0
  2 11  1  0  0  0  0
  2 12  1  0  0  0  0
  3 13  1  0  0  0  0
  3 14  1  0  0  0  0
  4 15  1  0  0  0  0
  5 16  1  0  0  0  0
  6 17  1  0  0  0  0
  6 18  1  0  0  0  0
  7 19  1  0  0  0  0
M  END
> <id>
3695

> <casrn>
5343-92-0

> <smiles (First)>


> <Molecular weight>
104.1475830078125

> <name>
pentane-1,2-diol

> <Outcome>
0

> <Molecule (RDKit Mol) (InChI Code)>
InChI=1S/C5H12O2/c1-2-3-5(7)4-6/h5-7H,2-4H2,1H3

> <reference>
ECHA

> <molecule_form>
A

$$$$

  Mrv1812 01171911372D          

 26 26  0  0  0  0            999 V2000
   -0.7656    3.7443    0.0000 C   0  0  0  0  0  0  0  0  0  0  0  0
   -0.0511    3.3318    0.0000 C   0  0  0  0  0  0  0  0  0  0  0  0
    0.6634    3.7443    0.0000 N   0  0  0  0  0  0  0  0  0  0  0  0
   -0.0511    2.5068    0.0000 C   0  0  0  0  0  0  0  0  0  0  0  0
    0.6634    2.0943    0.0000 C   0  0  0  0  0  0  0  0  0  0  0  0
    0.6634    1.2693    0.0000 C   0  0  0  0  0  0  0  0  0  0  0  0
    1.3779    0.8568    0.0000 C   0  0  0  0  0  0  0  0  0  0  0  0
    1.3779    0.0318    0.0000 C   0  0  0  0  0  0  0  0  0  0  0  0
    0.6634   -0.3807    0.0000 C   0  0  0  0  0  0  0  0  0  0  0  0
   -0.0511    0.0318    0.0000 C   0  0  0  0  0  0  0  0  0  0  0  0
   -0.0511    0.8568    0.0000 C   0  0  0  0  0  0  0  0  0  0  0  0
   -0.3531    4.4587    0.0000 H   0  0  0  0  0  0  0  0  0  0  0  0
   -1.4800    4.1568    0.0000 H   0  0  0  0  0  0  0  0  0  0  0  0
   -1.1781    3.0298    0.0000 H   0  0  0  0  0  0  0  0  0  0  0  0
   -0.0511    4.1568    0.0000 H   0  0  0  0  0  0  0  0  0  0  0  0
    1.3527    3.2909    0.0000 H   0  0  0  0  0  0  0  0  0  0  0  0
    1.3527    4.1976    0.0000 H   0  0  0  0  0  0  0  0  0  0  0  0
   -0.8747    2.4588    0.0000 H   0  0  0  0  0  0  0  0  0  0  0  0
   -0.5044    1.8175    0.0000 H   0  0  0  0  0  0  0  0  0  0  0  0
    1.4870    2.1422    0.0000 H   0  0  0  0  0  0  0  0  0  0  0  0
    1.1167    2.7835    0.0000 H   0  0  0  0  0  0  0  0  0  0  0  0
    2.0923    1.2693    0.0000 H   0  0  0  0  0  0  0  0  0  0  0  0
    2.0923   -0.3807    0.0000 H   0  0  0  0  0  0  0  0  0  0  0  0
    0.6634   -1.2057    0.0000 H   0  0  0  0  0  0  0  0  0  0  0  0
   -0.7656   -0.3807    0.0000 H   0  0  0  0  0  0  0  0  0  0  0  0
   -0.7656    1.2693    0.0000 H   0  0  0  0  0  0  0  0  0  0  0  0
  1  2  1  0  0  0  0
  2  3  1  0  0  0  0
  2  4  1  0  0  0  0
  4  5  1  0  0  0  0
  5  6  1  0  0  0  0
  6  7  4  0  0  0  0
  7  8  4  0  0  0  0
  8  9  4  0  0  0  0
  9 10  4  0  0  0  0
 10 11  4  0  0  0  0
  6 11  4  0  0  0  0
  1 12  1  0  0  0  0
  1 13  1  0  0  0  0
  1 14  1  0  0  0  0
  2 15  1  0  0  0  0
  3 16  1  0  0  0  0
  3 17  1  0  0  0  0
  4 18  1  0  0  0  0
  4 19  1  0  0  0  0
  5 20  1  0  0  0  0
  5 21  1  0  0  0  0
  7 22  1  0  0  0  0
  8 23  1  0  0  0  0
  9 24  1  0  0  0  0
 10 25  1  0  0  0  0
 11 26  1  0  0  0  0
M  END
> <id>
1849

> <casrn>
22374-89-6

> <smiles (First)>


> <Molecular weight>
149.23280334472656

> <name>
4-phenylbutan-2-amine

> <Outcome>
0

> <Molecule (RDKit Mol) (InChI Code)>
InChI=1S/C10H15N/c1-9(11)7-8-10-5-3-2-4-6-10/h2-6,9H,7-8,11H2,1H3

> <reference>
ECHA

> <molecule_form>
A

$$$$

  Mrv1812 01171911372D          

 16 15  0  0  0  0            999 V2000
   -0.1915    0.7145    0.0000 O   0  0  0  0  0  0  0  0  0  0  0  0
    0.5230    1.1270    0.0000 C   0  0  0  0  0  0  0  0  0  0  0  0
    1.2375    0.7145    0.0000 C   0  0  0  0  0  0  0  0  0  0  0  0
    1.9520    1.1270    0.0000 C   0  0  0  0  0  0  0  0  0  0  0  0
    2.6664    0.7145    0.0000 C   0  0  0  0  0  0  0  0  0  0  0  0
    3.3809    1.1270    0.0000 O   0  0  0  0  0  0  0  0  0  0  0  0
   -0.9059    1.1270    0.0000 H   0  0  0  0  0  0  0  0  0  0  0  0
    0.8933    1.8642    0.0000 H   0  0  0  0  0  0  0  0  0  0  0  0
    0.1528    1.8642    0.0000 H   0  0  0  0  0  0  0  0  0  0  0  0
    0.8672   -0.0227    0.0000 H   0  0  0  0  0  0  0  0  0  0  0  0
    1.6077   -0.0227    0.0000 H   0  0  0  0  0  0  0  0  0  0  0  0
    2.3222    1.8642    0.0000 H   0  0  0  0  0  0  0  0  0  0  0  0
    1.5817    1.8642    0.0000 H   0  0  0  0  0  0  0  0  0  0  0  0
    2.2962   -0.0227    0.0000 H   0  0  0  0  0  0  0  0  0  0  0  0
    3.0367   -0.0227    0.0000 H   0  0  0  0  0  0  0  0  0  0  0  0
    4.0954    0.7145    0.0000 H   0  0  0  0  0  0  0  0  0  0  0  0
  1  2  1  0  0  0  0
  2  3  1  0  0  0  0
  3  4  1  0  0  0  0
  4  5  1  0  0  0  0
  5  6  1  0  0  0  0
  1  7  1  0  0  0  0
  2  8  1  0  0  0  0
  2  9  1  0  0  0  0
  3 10  1  0  0  0  0
  3 11  1  0  0  0  0
  4 12  1  0  0  0  0
  4 13  1  0  0  0  0
  5 14  1  0  0  0  0
  5 15  1  0  0  0  0
  6 16  1  0  0  0  0
M  END
> <id>
2703; 2702

> <casrn>
110-63-4

> <smiles (First)>


> <Molecular weight>
90.12100219726562

> <name>
butane-1,4-diol

> <Outcome>
0

> <Molecule (RDKit Mol) (InChI Code)>
InChI=1S/C4H10O2/c5-3-1-2-4-6/h5-6H,1-4H2

> <reference>
ECHA

> <molecule_form>
A

$$$$

  Mrv1812 01171911372D          

  6  5  0  0  0  0            999 V2000
    2.2000   -0.0000    0.0000 C   0  0  0  0  0  0  0  0  0  0  0  0
    1.3750    0.0000    0.0000 C   0  0  0  0  0  0  0  0  0  0  0  0
    0.5500    0.0000    0.0000 N   0  0  0  0  0  0  0  0  0  0  0  0
    2.2000   -0.8250    0.0000 H   0  0  0  0  0  0  0  0  0  0  0  0
    3.0250   -0.0000    0.0000 H   0  0  0  0  0  0  0  0  0  0  0  0
    2.2000    0.8250    0.0000 H   0  0  0  0  0  0  0  0  0  0  0  0
  1  2  1  0  0  0  0
  2  3  3  0  0  0  0
  1  4  1  0  0  0  0
  1  5  1  0  0  0  0
  1  6  1  0  0  0  0
M  END
> <id>
2570

> <casrn>
75-05-8

> <smiles (First)>


> <Molecular weight>
41.05192184448242

> <name>
acetonitrile

> <Outcome>
1

> <Molecule (RDKit Mol) (InChI Code)>
InChI=1S/C2H3N/c1-2-3/h1H3

> <reference>
ECHA

> <molecule_form>
V

$$$$

  Mrv1812 01171911372D          

 32 31  0  0  0  0            999 V2000
    4.9100    0.3499    0.0000 C   0  0  0  0  0  0  0  0  0  0  0  0
    4.1955   -0.0626    0.0000 C   0  0  0  0  0  0  0  0  0  0  0  0
    3.4810    0.3499    0.0000 C   0  0  0  0  0  0  0  0  0  0  0  0
    3.8935    1.0643    0.0000 C   0  0  0  0  0  0  0  0  0  0  0  0
    3.0685   -0.3646    0.0000 O   0  0  0  0  0  0  0  0  0  0  0  0
    2.2435   -0.3646    0.0000 O   0  0  0  0  0  0  0  0  0  0  0  0
    2.7666    0.7624    0.0000 O   0  0  0  0  0  0  0  0  0  0  0  0
    2.0521    0.3499    0.0000 O   0  0  0  0  0  0  0  0  0  0  0  0
    1.3376    0.7624    0.0000 C   0  0  0  0  0  0  0  0  0  0  0  0
    1.7501    1.4768    0.0000 C   0  0  0  0  0  0  0  0  0  0  0  0
    0.6231    1.1749    0.0000 C   0  0  0  0  0  0  0  0  0  0  0  0
   -0.0913    0.7624    0.0000 C   0  0  0  0  0  0  0  0  0  0  0  0
    0.9251    0.0479    0.0000 O   0  0  0  0  0  0  0  0  0  0  0  0
    0.1001    0.0479    0.0000 O   0  0  0  0  0  0  0  0  0  0  0  0
    5.3225   -0.3646    0.0000 H   0  0  0  0  0  0  0  0  0  0  0  0
    5.6244    0.7624    0.0000 H   0  0  0  0  0  0  0  0  0  0  0  0
    4.4975    1.0643    0.0000 H   0  0  0  0  0  0  0  0  0  0  0  0
    3.8252   -0.7999    0.0000 H   0  0  0  0  0  0  0  0  0  0  0  0
    4.5658   -0.7999    0.0000 H   0  0  0  0  0  0  0  0  0  0  0  0
    4.3060    1.7788    0.0000 H   0  0  0  0  0  0  0  0  0  0  0  0
    3.4810    1.7788    0.0000 H   0  0  0  0  0  0  0  0  0  0  0  0
    3.0685    1.0643    0.0000 H   0  0  0  0  0  0  0  0  0  0  0  0
    1.7413   -1.0191    0.0000 H   0  0  0  0  0  0  0  0  0  0  0  0
    2.4646    1.0643    0.0000 H   0  0  0  0  0  0  0  0  0  0  0  0
    2.1626    2.1913    0.0000 H   0  0  0  0  0  0  0  0  0  0  0  0
    1.0356    1.8893    0.0000 H   0  0  0  0  0  0  0  0  0  0  0  0
    0.0398    1.7582    0.0000 H   0  0  0  0  0  0  0  0  0  0  0  0
    0.6231    0.3499    0.0000 H   0  0  0  0  0  0  0  0  0  0  0  0
   -0.1453    1.5856    0.0000 H   0  0  0  0  0  0  0  0  0  0  0  0
   -0.8535    1.0781    0.0000 H   0  0  0  0  0  0  0  0  0  0  0  0
   -0.7116    0.2184    0.0000 H   0  0  0  0  0  0  0  0  0  0  0  0
    0.0149   -0.7727    0.0000 H   0  0  0  0  0  0  0  0  0  0  0  0
  1  2  1  0  0  0  0
  2  3  1  0  0  0  0
  3  4  1  0  0  0  0
  3  5  1  0  0  0  0
  5  6  1  0  0  0  0
  3  7  1  0  0  0  0
  7  8  1  0  0  0  0
  8  9  1  0  0  0  0
  9 10  1  0  0  0  0
  9 11  1  0  0  0  0
 11 12  1  0  0  0  0
  9 13  1  0  0  0  0
 13 14  1  0  0  0  0
  1 15  1  0  0  0  0
  1 16  1  0  0  0  0
  1 17  1  0  0  0  0
  2 18  1  0  0  0  0
  2 19  1  0  0  0  0
  4 20  1  0  0  0  0
  4 21  1  0  0  0  0
  4 22  1  0  0  0  0
  6 23  1  0  0  0  0
 10 24  1  0  0  0  0
 10 25  1  0  0  0  0
 10 26  1  0  0  0  0
 11 27  1  0  0  0  0
 11 28  1  0  0  0  0
 12 29  1  0  0  0  0
 12 30  1  0  0  0  0
 12 31  1  0  0  0  0
 14 32  1  0  0  0  0
M  END
> <id>
4176

> <casrn>
1338-23-4

> <smiles (First)>


> <Molecular weight>
210.2249298095703

> <name>
unnamed [1338-23-4]

> <Outcome>
1

> <Molecule (RDKit Mol) (InChI Code)>
InChI=1S/C8H18O6/c1-5-7(3,11-9)13-14-8(4,6-2)12-10/h9-10H,5-6H2,1-4H3

> <reference>
ECHA

> <molecule_form>
A

$$$$

  Mrv1812 01171911372D          

 12 11  0  0  0  0            999 V2000
    1.2405    0.7145    0.0000 C   0  0  0  0  0  0  0  0  0  0  0  0
    0.8280    0.0000    0.0000 C   0  0  0  0  0  0  0  0  0  0  0  0
    1.2405   -0.7145    0.0000 Cl  0  0  0  0  0  0  0  0  0  0  0  0
    0.0030    0.0000    0.0000 C   0  0  0  0  0  0  0  0  0  0  0  0
   -0.4095   -0.7145    0.0000 C   0  0  0  0  0  0  0  0  0  0  0  0
    0.0030   -1.4289    0.0000 Cl  0  0  0  0  0  0  0  0  0  0  0  0
    1.9549    0.3020    0.0000 H   0  0  0  0  0  0  0  0  0  0  0  0
    1.6530    1.4289    0.0000 H   0  0  0  0  0  0  0  0  0  0  0  0
    0.5260    1.1270    0.0000 H   0  0  0  0  0  0  0  0  0  0  0  0
   -0.4095    0.7145    0.0000 H   0  0  0  0  0  0  0  0  0  0  0  0
   -1.1468   -0.3442    0.0000 H   0  0  0  0  0  0  0  0  0  0  0  0
   -1.1468   -1.0847    0.0000 H   0  0  0  0  0  0  0  0  0  0  0  0
  1  2  1  0  0  0  0
  2  3  1  0  0  0  0
  2  4  2  0  0  0  0
  4  5  1  4  0  0  0
  5  6  1  0  0  0  0
  1  7  1  0  0  0  0
  1  8  1  0  0  0  0
  1  9  1  0  0  0  0
  4 10  1  0  0  0  0
  5 11  1  0  0  0  0
  5 12  1  0  0  0  0
M  END
> <id>
986

> <casrn>
926-57-8

> <smiles (First)>


> <Molecular weight>
124.9964370727539

> <name>
1,3-dichlorobut-2-ene

> <Outcome>
1

> <Molecule (RDKit Mol) (InChI Code)>
InChI=1S/C4H6Cl2/c1-4(6)2-3-5/h2H,3H2,1H3

> <reference>
ECHA

> <molecule_form>
V

$$$$

  Mrv1812 01171911372D          

 23 24  0  0  0  0            999 V2000
    2.0367    0.3509    0.0000 N   0  0  0  0  0  0  0  0  0  0  0  0
    2.7512    0.7634    0.0000 C   0  0  0  0  0  0  0  0  0  0  0  0
    3.4656    1.1759    0.0000 C   0  0  0  0  0  0  0  0  0  0  0  0
    3.4656    2.0009    0.0000 C   0  0  0  0  0  0  0  0  0  0  0  0
    4.1801    2.4134    0.0000 C   0  0  0  0  0  0  0  0  0  0  0  0
    4.8946    2.0009    0.0000 C   0  0  0  0  0  0  0  0  0  0  0  0
    4.8946    1.1759    0.0000 C   0  0  0  0  0  0  0  0  0  0  0  0
    4.1801    0.7634    0.0000 C   0  0  0  0  0  0  0  0  0  0  0  0
    4.1801   -0.0616    0.0000 N   0  0  0  0  0  0  0  0  0  0  0  0
    3.4656   -0.4741    0.0000 C   0  0  0  0  0  0  0  0  0  0  0  0
    2.7512   -0.0616    0.0000 O   0  0  0  0  0  0  0  0  0  0  0  0
    3.4656   -1.2991    0.0000 C   0  0  0  0  0  0  0  0  0  0  0  0
    4.1331   -1.7840    0.0000 S   0  0  0  0  0  0  0  0  0  0  0  0
    3.8781   -2.5686    0.0000 N   0  0  0  0  0  0  0  0  0  0  0  0
    3.0531   -2.5686    0.0000 C   0  0  0  0  0  0  0  0  0  0  0  0
    2.5682   -3.2361    0.0000 Cl  0  0  0  0  0  0  0  0  0  0  0  0
    2.7982   -1.7840    0.0000 C   0  0  0  0  0  0  0  0  0  0  0  0
    2.0136   -1.5291    0.0000 Cl  0  0  0  0  0  0  0  0  0  0  0  0
    2.7512    2.4134    0.0000 H   0  0  0  0  0  0  0  0  0  0  0  0
    4.1801    3.2384    0.0000 H   0  0  0  0  0  0  0  0  0  0  0  0
    5.6090    2.4134    0.0000 H   0  0  0  0  0  0  0  0  0  0  0  0
    5.6090    0.7634    0.0000 H   0  0  0  0  0  0  0  0  0  0  0  0
    4.8946   -0.4741    0.0000 H   0  0  0  0  0  0  0  0  0  0  0  0
  1  2  3  0  0  0  0
  2  3  1  0  0  0  0
  3  4  4  0  0  0  0
  4  5  4  0  0  0  0
  5  6  4  0  0  0  0
  6  7  4  0  0  0  0
  7  8  4  0  0  0  0
  3  8  4  0  0  0  0
  8  9  1  0  0  0  0
  9 10  1  0  0  0  0
 10 11  2  0  0  0  0
 10 12  1  0  0  0  0
 12 13  4  0  0  0  0
 13 14  4  0  0  0  0
 14 15  4  0  0  0  0
 15 16  1  0  0  0  0
 15 17  4  0  0  0  0
 12 17  4  0  0  0  0
 17 18  1  0  0  0  0
  4 19  1  0  0  0  0
  5 20  1  0  0  0  0
  6 21  1  0  0  0  0
  7 22  1  0  0  0  0
  9 23  1  0  0  0  0
M  END
> <id>
271

> <casrn>
224049-04-1

> <smiles (First)>


> <Molecular weight>
298.14788818359375

> <name>
-

> <Outcome>
0

> <Molecule (RDKit Mol) (InChI Code)>
InChI=1S/C11H5Cl2N3OS/c12-8-9(18-16-10(8)13)11(17)15-7-4-2-1-3-6(7)5-14/h1-4H,(H,15,17)

> <reference>
ECHA

> <molecule_form>
A

$$$$

  Mrv1812 01171911372D          

  8  7  0  0  0  0            999 V2000
    0.8250   -1.6500    0.0000 F   0  0  0  0  0  0  0  0  0  0  0  0
    0.8250   -0.8250    0.0000 C   0  0  0  0  0  0  0  0  0  0  0  0
    1.6500   -0.8250    0.0000 F   0  0  0  0  0  0  0  0  0  0  0  0
    0.0000   -0.8250    0.0000 F   0  0  0  0  0  0  0  0  0  0  0  0
    0.8250    0.0000    0.0000 C   0  0  0  0  0  0  0  0  0  0  0  0
    0.8250    0.8250    0.0000 F   0  0  0  0  0  0  0  0  0  0  0  0
    1.6500   -0.0000    0.0000 F   0  0  0  0  0  0  0  0  0  0  0  0
    0.0000    0.0000    0.0000 F   0  0  0  0  0  0  0  0  0  0  0  0
  1  2  1  0  0  0  0
  2  3  1  0  0  0  0
  2  4  1  0  0  0  0
  2  5  1  0  0  0  0
  5  6  1  0  0  0  0
  5  7  1  0  0  0  0
  5  8  1  0  0  0  0
M  END
> <id>
3311

> <casrn>
76-16-4

> <smiles (First)>


> <Molecular weight>
138.01182556152344

> <name>
hexafluoroethane

> <Outcome>
0

> <Molecule (RDKit Mol) (InChI Code)>
InChI=1S/C2F6/c3-1(4,5)2(6,7)8

> <reference>
ECHA

> <molecule_form>
G

$$$$

  Mrv1812 01171911372D          

 15 14  0  0  0  0            999 V2000
    0.8538   -0.7298    0.0000 C   0  0  0  0  0  0  0  0  0  0  0  0
    0.8538    0.0952    0.0000 C   0  0  0  0  0  0  0  0  0  0  0  0
    0.8538    0.9202    0.0000 C   0  0  0  0  0  0  0  0  0  0  0  0
    1.6788    0.0952    0.0000 C   0  0  0  0  0  0  0  0  0  0  0  0
    0.0288    0.0952    0.0000 S   0  0  0  0  0  0  0  0  0  0  0  0
    0.0288   -0.7298    0.0000 H   0  0  0  0  0  0  0  0  0  0  0  0
    0.8538   -1.5548    0.0000 H   0  0  0  0  0  0  0  0  0  0  0  0
    1.6788   -0.7298    0.0000 H   0  0  0  0  0  0  0  0  0  0  0  0
    1.6788    0.9202    0.0000 H   0  0  0  0  0  0  0  0  0  0  0  0
    0.8538    1.7452    0.0000 H   0  0  0  0  0  0  0  0  0  0  0  0
    0.0288    0.9202    0.0000 H   0  0  0  0  0  0  0  0  0  0  0  0
    2.2621   -0.4881    0.0000 H   0  0  0  0  0  0  0  0  0  0  0  0
    2.5038    0.0952    0.0000 H   0  0  0  0  0  0  0  0  0  0  0  0
    2.2621    0.6786    0.0000 H   0  0  0  0  0  0  0  0  0  0  0  0
   -0.7962    0.0952    0.0000 H   0  0  0  0  0  0  0  0  0  0  0  0
  1  2  1  0  0  0  0
  2  3  1  0  0  0  0
  2  4  1  0  0  0  0
  2  5  1  0  0  0  0
  1  6  1  0  0  0  0
  1  7  1  0  0  0  0
  1  8  1  0  0  0  0
  3  9  1  0  0  0  0
  3 10  1  0  0  0  0
  3 11  1  0  0  0  0
  4 12  1  0  0  0  0
  4 13  1  0  0  0  0
  4 14  1  0  0  0  0
  5 15  1  0  0  0  0
M  END
> <id>
1669; 1668; 1667

> <casrn>
75-66-1

> <smiles (First)>


> <Molecular weight>
90.18720245361328

> <name>
2-methylpropane-2-thiol

> <Outcome>
0

> <Molecule (RDKit Mol) (InChI Code)>
InChI=1S/C4H10S/c1-4(2,3)5/h5H,1-3H3

> <reference>
ECHA

> <molecule_form>
V

$$$$

  Mrv1812 01171911372D          

 43 42  0  0  0  0            999 V2000
    5.7356    0.6500    0.0000 C   0  0  0  0  0  0  0  0  0  0  0  0
    5.0212    1.0625    0.0000 C   0  0  0  0  0  0  0  0  0  0  0  0
    4.3067    0.6500    0.0000 C   0  0  0  0  0  0  0  0  0  0  0  0
    3.8942    1.3645    0.0000 C   0  0  0  0  0  0  0  0  0  0  0  0
    3.0692    1.3645    0.0000 O   0  0  0  0  0  0  0  0  0  0  0  0
    4.7192   -0.0645    0.0000 C   0  0  0  0  0  0  0  0  0  0  0  0
    4.3067   -0.7789    0.0000 O   0  0  0  0  0  0  0  0  0  0  0  0
    3.5922    0.2375    0.0000 C   0  0  0  0  0  0  0  0  0  0  0  0
    2.8777    0.6500    0.0000 O   0  0  0  0  0  0  0  0  0  0  0  0
    2.1633    0.2375    0.0000 C   0  0  0  0  0  0  0  0  0  0  0  0
    1.4488    0.6500    0.0000 C   0  0  0  0  0  0  0  0  0  0  0  0
    0.7343    1.0625    0.0000 C   0  0  0  0  0  0  0  0  0  0  0  0
    0.0199    0.6500    0.0000 C   0  0  0  0  0  0  0  0  0  0  0  0
    1.8613    1.3645    0.0000 C   0  0  0  0  0  0  0  0  0  0  0  0
    1.4488    2.0789    0.0000 O   0  0  0  0  0  0  0  0  0  0  0  0
    1.0363   -0.0645    0.0000 C   0  0  0  0  0  0  0  0  0  0  0  0
    0.2113   -0.0645    0.0000 O   0  0  0  0  0  0  0  0  0  0  0  0
    5.3231   -0.0645    0.0000 H   0  0  0  0  0  0  0  0  0  0  0  0
    6.4501    0.2375    0.0000 H   0  0  0  0  0  0  0  0  0  0  0  0
    6.1481    1.3645    0.0000 H   0  0  0  0  0  0  0  0  0  0  0  0
    5.3914    1.7997    0.0000 H   0  0  0  0  0  0  0  0  0  0  0  0
    4.6509    1.7997    0.0000 H   0  0  0  0  0  0  0  0  0  0  0  0
    3.6813    2.1615    0.0000 H   0  0  0  0  0  0  0  0  0  0  0  0
    3.4817    0.6500    0.0000 H   0  0  0  0  0  0  0  0  0  0  0  0
    2.5670    2.0190    0.0000 H   0  0  0  0  0  0  0  0  0  0  0  0
    5.1317    0.6500    0.0000 H   0  0  0  0  0  0  0  0  0  0  0  0
    5.1317   -0.7789    0.0000 H   0  0  0  0  0  0  0  0  0  0  0  0
    3.5922   -1.1914    0.0000 H   0  0  0  0  0  0  0  0  0  0  0  0
    3.2220   -0.4997    0.0000 H   0  0  0  0  0  0  0  0  0  0  0  0
    3.9625   -0.4997    0.0000 H   0  0  0  0  0  0  0  0  0  0  0  0
    1.7930   -0.4997    0.0000 H   0  0  0  0  0  0  0  0  0  0  0  0
    2.5335   -0.4997    0.0000 H   0  0  0  0  0  0  0  0  0  0  0  0
    1.1046    1.7997    0.0000 H   0  0  0  0  0  0  0  0  0  0  0  0
    0.3641    1.7997    0.0000 H   0  0  0  0  0  0  0  0  0  0  0  0
   -0.0341    1.4732    0.0000 H   0  0  0  0  0  0  0  0  0  0  0  0
   -0.7423    0.9657    0.0000 H   0  0  0  0  0  0  0  0  0  0  0  0
   -0.6004    0.1060    0.0000 H   0  0  0  0  0  0  0  0  0  0  0  0
    2.2006    0.6125    0.0000 H   0  0  0  0  0  0  0  0  0  0  0  0
    2.6699    1.2009    0.0000 H   0  0  0  0  0  0  0  0  0  0  0  0
    1.5988    2.8902    0.0000 H   0  0  0  0  0  0  0  0  0  0  0  0
    0.8234   -0.8615    0.0000 H   0  0  0  0  0  0  0  0  0  0  0  0
    0.6238    0.6500    0.0000 H   0  0  0  0  0  0  0  0  0  0  0  0
    0.1260   -0.8851    0.0000 H   0  0  0  0  0  0  0  0  0  0  0  0
  1  2  1  0  0  0  0
  2  3  1  0  0  0  0
  3  4  1  0  0  0  0
  4  5  1  0  0  0  0
  3  6  1  0  0  0  0
  6  7  1  0  0  0  0
  3  8  1  0  0  0  0
  8  9  1  0  0  0  0
  9 10  1  0  0  0  0
 10 11  1  0  0  0  0
 11 12  1  0  0  0  0
 12 13  1  0  0  0  0
 11 14  1  0  0  0  0
 14 15  1  0  0  0  0
 11 16  1  0  0  0  0
 16 17  1  0  0  0  0
  1 18  1  0  0  0  0
  1 19  1  0  0  0  0
  1 20  1  0  0  0  0
  2 21  1  0  0  0  0
  2 22  1  0  0  0  0
  4 23  1  0  0  0  0
  4 24  1  0  0  0  0
  5 25  1  0  0  0  0
  6 26  1  0  0  0  0
  6 27  1  0  0  0  0
  7 28  1  0  0  0  0
  8 29  1  0  0  0  0
  8 30  1  0  0  0  0
 10 31  1  0  0  0  0
 10 32  1  0  0  0  0
 12 33  1  0  0  0  0
 12 34  1  0  0  0  0
 13 35  1  0  0  0  0
 13 36  1  0  0  0  0
 13 37  1  0  0  0  0
 14 38  1  0  0  0  0
 14 39  1  0  0  0  0
 15 40  1  0  0  0  0
 16 41  1  0  0  0  0
 16 42  1  0  0  0  0
 17 43  1  0  0  0  0
M  END
> <id>
1459

> <casrn>
23235-61-2

> <smiles (First)>


> <Molecular weight>
250.33184814453125

> <name>
2-ethyl-2-{[2-ethyl-3-hydroxy-2-(hydroxymethyl)propoxy]methyl}propane-1,3-diol

> <Outcome>
0

> <Molecule (RDKit Mol) (InChI Code)>
InChI=1S/C12H26O5/c1-3-11(5-13,6-14)9-17-10-12(4-2,7-15)8-16/h13-16H,3-10H2,1-2H3

> <reference>
ECHA

> <molecule_form>
A

$$$$

  Mrv1812 01171911372D          

 53 52  0  0  0  0            999 V2000
    4.2388    3.2650    0.0000 C   0  0  0  0  0  0  0  0  0  0  0  0
    4.9533    2.8525    0.0000 C   0  0  0  0  0  0  0  0  0  0  0  0
    5.6677    3.2650    0.0000 C   0  0  0  0  0  0  0  0  0  0  0  0
    6.3822    2.8525    0.0000 C   0  0  0  0  0  0  0  0  0  0  0  0
    7.0967    3.2650    0.0000 C   0  0  0  0  0  0  0  0  0  0  0  0
    7.8111    2.8525    0.0000 C   0  0  0  0  0  0  0  0  0  0  0  0
    8.5256    3.2650    0.0000 C   0  0  0  0  0  0  0  0  0  0  0  0
    9.2401    2.8525    0.0000 C   0  0  0  0  0  0  0  0  0  0  0  0
    9.9546    3.2650    0.0000 C   0  0  0  0  0  0  0  0  0  0  0  0
   10.6690    2.8525    0.0000 C   0  0  0  0  0  0  0  0  0  0  0  0
   10.6690    2.0275    0.0000 C   0  0  0  0  0  0  0  0  0  0  0  0
   11.3835    3.2650    0.0000 C   0  0  0  0  0  0  0  0  0  0  0  0
   12.0980    2.8525    0.0000 C   0  0  0  0  0  0  0  0  0  0  0  0
   12.0980    2.0275    0.0000 C   0  0  0  0  0  0  0  0  0  0  0  0
   12.8124    1.6150    0.0000 C   0  0  0  0  0  0  0  0  0  0  0  0
   11.3835    1.6150    0.0000 O   0  0  0  0  0  0  0  0  0  0  0  0
   12.8124    3.2650    0.0000 C   0  0  0  0  0  0  0  0  0  0  0  0
   13.5269    2.8525    0.0000 O   0  0  0  0  0  0  0  0  0  0  0  0
   12.8124    4.0900    0.0000 O   0  0  0  0  0  0  0  0  0  0  0  0
   13.5269    4.5025    0.0000 C   0  0  0  0  0  0  0  0  0  0  0  0
   13.5269    5.3275    0.0000 C   0  0  0  0  0  0  0  0  0  0  0  0
    4.6513    3.9795    0.0000 H   0  0  0  0  0  0  0  0  0  0  0  0
    3.5243    3.6775    0.0000 H   0  0  0  0  0  0  0  0  0  0  0  0
    3.8263    2.5506    0.0000 H   0  0  0  0  0  0  0  0  0  0  0  0
    4.5830    2.1153    0.0000 H   0  0  0  0  0  0  0  0  0  0  0  0
    5.3235    2.1153    0.0000 H   0  0  0  0  0  0  0  0  0  0  0  0
    6.0380    4.0023    0.0000 H   0  0  0  0  0  0  0  0  0  0  0  0
    5.2975    4.0023    0.0000 H   0  0  0  0  0  0  0  0  0  0  0  0
    6.0119    2.1153    0.0000 H   0  0  0  0  0  0  0  0  0  0  0  0
    6.7525    2.1153    0.0000 H   0  0  0  0  0  0  0  0  0  0  0  0
    7.4669    4.0023    0.0000 H   0  0  0  0  0  0  0  0  0  0  0  0
    6.7264    4.0023    0.0000 H   0  0  0  0  0  0  0  0  0  0  0  0
    7.4409    2.1153    0.0000 H   0  0  0  0  0  0  0  0  0  0  0  0
    8.1814    2.1153    0.0000 H   0  0  0  0  0  0  0  0  0  0  0  0
    8.8959    4.0023    0.0000 H   0  0  0  0  0  0  0  0  0  0  0  0
    8.1553    4.0023    0.0000 H   0  0  0  0  0  0  0  0  0  0  0  0
    8.8698    2.1153    0.0000 H   0  0  0  0  0  0  0  0  0  0  0  0
    9.6103    2.1153    0.0000 H   0  0  0  0  0  0  0  0  0  0  0  0
   10.3248    4.0023    0.0000 H   0  0  0  0  0  0  0  0  0  0  0  0
    9.5843    4.0023    0.0000 H   0  0  0  0  0  0  0  0  0  0  0  0
    9.9546    2.4400    0.0000 H   0  0  0  0  0  0  0  0  0  0  0  0
   10.0370    1.4972    0.0000 H   0  0  0  0  0  0  0  0  0  0  0  0
   10.5258    1.2151    0.0000 H   0  0  0  0  0  0  0  0  0  0  0  0
   11.3835    2.4400    0.0000 H   0  0  0  0  0  0  0  0  0  0  0  0
   11.3835    4.0900    0.0000 H   0  0  0  0  0  0  0  0  0  0  0  0
   12.3999    0.9006    0.0000 H   0  0  0  0  0  0  0  0  0  0  0  0
   13.5269    1.2025    0.0000 H   0  0  0  0  0  0  0  0  0  0  0  0
   13.2249    2.3295    0.0000 H   0  0  0  0  0  0  0  0  0  0  0  0
   13.9803    3.8133    0.0000 H   0  0  0  0  0  0  0  0  0  0  0  0
   14.3505    4.4546    0.0000 H   0  0  0  0  0  0  0  0  0  0  0  0
   14.3519    5.3275    0.0000 H   0  0  0  0  0  0  0  0  0  0  0  0
   13.5269    6.1525    0.0000 H   0  0  0  0  0  0  0  0  0  0  0  0
   12.7019    5.3275    0.0000 H   0  0  0  0  0  0  0  0  0  0  0  0
  1  2  1  0  0  0  0
  2  3  1  0  0  0  0
  3  4  1  0  0  0  0
  4  5  1  0  0  0  0
  5  6  1  0  0  0  0
  6  7  1  0  0  0  0
  7  8  1  0  0  0  0
  8  9  1  0  0  0  0
  9 10  1  0  0  0  0
 10 11  1  0  0  0  0
 12 10  1  0  0  0  0
 12 13  2  0  0  0  0
 13 14  1  0  0  0  0
 14 15  1  0  0  0  0
 14 16  2  0  0  0  0
 13 17  1  0  0  0  0
 17 18  2  0  0  0  0
 17 19  1  0  0  0  0
 19 20  1  0  0  0  0
 20 21  1  0  0  0  0
  1 22  1  0  0  0  0
  1 23  1  0  0  0  0
  1 24  1  0  0  0  0
  2 25  1  0  0  0  0
  2 26  1  0  0  0  0
  3 27  1  0  0  0  0
  3 28  1  0  0  0  0
  4 29  1  0  0  0  0
  4 30  1  0  0  0  0
  5 31  1  0  0  0  0
  5 32  1  0  0  0  0
  6 33  1  0  0  0  0
  6 34  1  0  0  0  0
  7 35  1  0  0  0  0
  7 36  1  0  0  0  0
  8 37  1  0  0  0  0
  8 38  1  0  0  0  0
  9 39  1  0  0  0  0
  9 40  1  0  0  0  0
 10 41  1  0  0  0  0
 11 42  1  0  0  0  0
 11 43  1  0  0  0  0
 11 44  1  0  0  0  0
 12 45  1  0  0  0  0
 15 46  1  0  0  0  0
 15 47  1  0  0  0  0
 15 48  1  0  0  0  0
 20 49  1  0  0  0  0
 20 50  1  0  0  0  0
 21 51  1  0  0  0  0
 21 52  1  0  0  0  0
 21 53  1  0  0  0  0
M  END
> <id>
4321

> <casrn>
960253-23-0

> <smiles (First)>


> <Molecular weight>
296.44488525390625

> <name>
unnamed [960253-23-0]

> <Outcome>
1

> <Molecule (RDKit Mol) (InChI Code)>
InChI=1S/C18H32O3/c1-5-7-8-9-10-11-12-13-15(3)14-17(16(4)19)18(20)21-6-2/h14-15H,5-13H2,1-4H3/b17-14+

> <reference>
ECHA

> <molecule_form>
A

$$$$

  Mrv1812 01171911372D          

 15 15  0  0  0  0            999 V2000
   -0.0000    2.4750    0.0000 O   0  0  0  0  0  0  0  0  0  0  0  0
    0.7145    2.0625    0.0000 C   0  0  0  0  0  0  0  0  0  0  0  0
    1.4289    2.4750    0.0000 O   0  0  0  0  0  0  0  0  0  0  0  0
    0.7145    1.2375    0.0000 C   0  0  0  0  0  0  0  0  0  0  0  0
    1.4289    0.8250    0.0000 C   0  0  0  0  0  0  0  0  0  0  0  0
    1.4289    0.0000    0.0000 C   0  0  0  0  0  0  0  0  0  0  0  0
    0.7145   -0.4125    0.0000 C   0  0  0  0  0  0  0  0  0  0  0  0
   -0.0000    0.0000    0.0000 C   0  0  0  0  0  0  0  0  0  0  0  0
   -0.0000    0.8250    0.0000 C   0  0  0  0  0  0  0  0  0  0  0  0
    2.1434    2.0625    0.0000 H   0  0  0  0  0  0  0  0  0  0  0  0
    2.1434    1.2375    0.0000 H   0  0  0  0  0  0  0  0  0  0  0  0
    2.1434   -0.4125    0.0000 H   0  0  0  0  0  0  0  0  0  0  0  0
    0.7145   -1.2375    0.0000 H   0  0  0  0  0  0  0  0  0  0  0  0
   -0.7145   -0.4125    0.0000 H   0  0  0  0  0  0  0  0  0  0  0  0
   -0.7145    1.2375    0.0000 H   0  0  0  0  0  0  0  0  0  0  0  0
  1  2  2  0  0  0  0
  2  3  1  0  0  0  0
  2  4  1  0  0  0  0
  4  5  4  0  0  0  0
  5  6  4  0  0  0  0
  6  7  4  0  0  0  0
  7  8  4  0  0  0  0
  8  9  4  0  0  0  0
  4  9  4  0  0  0  0
  3 10  1  0  0  0  0
  5 11  1  0  0  0  0
  6 12  1  0  0  0  0
  7 13  1  0  0  0  0
  8 14  1  0  0  0  0
  9 15  1  0  0  0  0
M  END
> <id>
2636

> <casrn>
65-85-0

> <smiles (First)>


> <Molecular weight>
122.12134552001953

> <name>
benzoic acid

> <Outcome>
0

> <Molecule (RDKit Mol) (InChI Code)>
InChI=1S/C7H6O2/c8-7(9)6-4-2-1-3-5-6/h1-5H,(H,8,9)

> <reference>
ECHA

> <molecule_form>
A

$$$$

  Mrv1812 01171911372D          

 10  9  0  0  0  0            999 V2000
    2.0625   -0.7145    0.0000 C   0  0  0  0  0  0  0  0  0  0  0  0
    1.2375   -0.7145    0.0000 S   0  0  0  0  0  0  0  0  0  0  0  0
    0.8250   -0.0000    0.0000 S   0  0  0  0  0  0  0  0  0  0  0  0
    0.0000   -0.0000    0.0000 C   0  0  0  0  0  0  0  0  0  0  0  0
    2.0625   -1.5395    0.0000 H   0  0  0  0  0  0  0  0  0  0  0  0
    2.8875   -0.7145    0.0000 H   0  0  0  0  0  0  0  0  0  0  0  0
    2.0625    0.1105    0.0000 H   0  0  0  0  0  0  0  0  0  0  0  0
    0.0000    0.8250    0.0000 H   0  0  0  0  0  0  0  0  0  0  0  0
   -0.8250   -0.0000    0.0000 H   0  0  0  0  0  0  0  0  0  0  0  0
   -0.0000   -0.8250    0.0000 H   0  0  0  0  0  0  0  0  0  0  0  0
  1  2  1  0  0  0  0
  2  3  1  0  0  0  0
  3  4  1  0  0  0  0
  1  5  1  0  0  0  0
  1  6  1  0  0  0  0
  1  7  1  0  0  0  0
  4  8  1  0  0  0  0
  4  9  1  0  0  0  0
  4 10  1  0  0  0  0
M  END
> <id>
224

> <casrn>
624-92-0

> <smiles (First)>


> <Molecular weight>
94.19903564453125

> <name>
(methyldisulfanyl)methane

> <Outcome>
1

> <Molecule (RDKit Mol) (InChI Code)>
InChI=1S/C2H6S2/c1-3-4-2/h1-2H3

> <reference>
ECHA

> <molecule_form>
V

$$$$

  Mrv1812 01171911372D          

 65 64  0  0  0  0            999 V2000
    2.4434   -8.8100    0.0000 C   0  0  0  0  0  0  0  0  0  0  0  0
    2.0309   -8.0955    0.0000 C   0  0  0  0  0  0  0  0  0  0  0  0
    2.4434   -7.3810    0.0000 C   0  0  0  0  0  0  0  0  0  0  0  0
    2.0309   -6.6666    0.0000 C   0  0  0  0  0  0  0  0  0  0  0  0
    2.4434   -5.9521    0.0000 O   0  0  0  0  0  0  0  0  0  0  0  0
    2.0309   -5.2376    0.0000 C   0  0  0  0  0  0  0  0  0  0  0  0
    2.4434   -4.5232    0.0000 C   0  0  0  0  0  0  0  0  0  0  0  0
    2.0309   -3.8087    0.0000 O   0  0  0  0  0  0  0  0  0  0  0  0
    2.4434   -3.0942    0.0000 P   0  0  0  0  0  0  0  0  0  0  0  0
    3.1578   -3.5067    0.0000 O   0  0  0  0  0  0  0  0  0  0  0  0
    2.8559   -2.3797    0.0000 O   0  0  0  0  0  0  0  0  0  0  0  0
    3.6809   -2.3797    0.0000 C   0  0  0  0  0  0  0  0  0  0  0  0
    4.0934   -3.0942    0.0000 C   0  0  0  0  0  0  0  0  0  0  0  0
    4.9184   -3.0942    0.0000 O   0  0  0  0  0  0  0  0  0  0  0  0
    5.3309   -3.8087    0.0000 C   0  0  0  0  0  0  0  0  0  0  0  0
    6.1559   -3.8087    0.0000 C   0  0  0  0  0  0  0  0  0  0  0  0
    6.5684   -4.5232    0.0000 C   0  0  0  0  0  0  0  0  0  0  0  0
    7.3934   -4.5232    0.0000 C   0  0  0  0  0  0  0  0  0  0  0  0
    1.7289   -2.6817    0.0000 O   0  0  0  0  0  0  0  0  0  0  0  0
    1.7289   -1.8567    0.0000 C   0  0  0  0  0  0  0  0  0  0  0  0
    2.4434   -1.4442    0.0000 C   0  0  0  0  0  0  0  0  0  0  0  0
    3.1578   -1.8567    0.0000 O   0  0  0  0  0  0  0  0  0  0  0  0
    3.8723   -1.4442    0.0000 C   0  0  0  0  0  0  0  0  0  0  0  0
    4.5868   -1.8567    0.0000 C   0  0  0  0  0  0  0  0  0  0  0  0
    5.3013   -1.4442    0.0000 C   0  0  0  0  0  0  0  0  0  0  0  0
    6.0157   -1.8567    0.0000 C   0  0  0  0  0  0  0  0  0  0  0  0
    1.7289   -9.2225    0.0000 H   0  0  0  0  0  0  0  0  0  0  0  0
    2.8559   -9.5244    0.0000 H   0  0  0  0  0  0  0  0  0  0  0  0
    3.1578   -8.3975    0.0000 H   0  0  0  0  0  0  0  0  0  0  0  0
    1.2936   -7.7252    0.0000 H   0  0  0  0  0  0  0  0  0  0  0  0
    1.2936   -8.4658    0.0000 H   0  0  0  0  0  0  0  0  0  0  0  0
    3.1806   -7.7513    0.0000 H   0  0  0  0  0  0  0  0  0  0  0  0
    3.1806   -7.0108    0.0000 H   0  0  0  0  0  0  0  0  0  0  0  0
    1.2936   -6.2963    0.0000 H   0  0  0  0  0  0  0  0  0  0  0  0
    1.2936   -7.0368    0.0000 H   0  0  0  0  0  0  0  0  0  0  0  0
    1.2936   -4.8674    0.0000 H   0  0  0  0  0  0  0  0  0  0  0  0
    1.2936   -5.6079    0.0000 H   0  0  0  0  0  0  0  0  0  0  0  0
    3.1806   -4.8934    0.0000 H   0  0  0  0  0  0  0  0  0  0  0  0
    3.1806   -4.1529    0.0000 H   0  0  0  0  0  0  0  0  0  0  0  0
    4.4952   -2.2476    0.0000 H   0  0  0  0  0  0  0  0  0  0  0  0
    3.2684   -3.0942    0.0000 H   0  0  0  0  0  0  0  0  0  0  0  0
    3.8112   -3.8695    0.0000 H   0  0  0  0  0  0  0  0  0  0  0  0
    4.3755   -3.8695    0.0000 H   0  0  0  0  0  0  0  0  0  0  0  0
    4.9490   -4.5400    0.0000 H   0  0  0  0  0  0  0  0  0  0  0  0
    5.7584   -4.5143    0.0000 H   0  0  0  0  0  0  0  0  0  0  0  0
    6.8451   -3.3553    0.0000 H   0  0  0  0  0  0  0  0  0  0  0  0
    6.2038   -2.9851    0.0000 H   0  0  0  0  0  0  0  0  0  0  0  0
    6.2810   -5.2965    0.0000 H   0  0  0  0  0  0  0  0  0  0  0  0
    6.8472   -5.2996    0.0000 H   0  0  0  0  0  0  0  0  0  0  0  0
    7.9363   -5.1443    0.0000 H   0  0  0  0  0  0  0  0  0  0  0  0
    8.1256   -4.1430    0.0000 H   0  0  0  0  0  0  0  0  0  0  0  0
    7.1977   -3.7217    0.0000 H   0  0  0  0  0  0  0  0  0  0  0  0
    1.2756   -1.1674    0.0000 H   0  0  0  0  0  0  0  0  0  0  0  0
    0.9053   -1.8087    0.0000 H   0  0  0  0  0  0  0  0  0  0  0  0
    2.8136   -0.7070    0.0000 H   0  0  0  0  0  0  0  0  0  0  0  0
    2.0731   -0.7070    0.0000 H   0  0  0  0  0  0  0  0  0  0  0  0
    4.2426   -0.7070    0.0000 H   0  0  0  0  0  0  0  0  0  0  0  0
    3.5021   -0.7070    0.0000 H   0  0  0  0  0  0  0  0  0  0  0  0
    5.2492   -2.3485    0.0000 H   0  0  0  0  0  0  0  0  0  0  0  0
    3.8297   -2.1845    0.0000 H   0  0  0  0  0  0  0  0  0  0  0  0
    5.6715   -0.7070    0.0000 H   0  0  0  0  0  0  0  0  0  0  0  0
    4.9310   -0.7070    0.0000 H   0  0  0  0  0  0  0  0  0  0  0  0
    6.2571   -2.6456    0.0000 H   0  0  0  0  0  0  0  0  0  0  0  0
    6.8405   -1.8374    0.0000 H   0  0  0  0  0  0  0  0  0  0  0  0
    6.2199   -1.0574    0.0000 H   0  0  0  0  0  0  0  0  0  0  0  0
  1  2  1  0  0  0  0
  2  3  1  0  0  0  0
  3  4  1  0  0  0  0
  4  5  1  0  0  0  0
  5  6  1  0  0  0  0
  6  7  1  0  0  0  0
  7  8  1  0  0  0  0
  8  9  1  0  0  0  0
  9 10  2  0  0  0  0
  9 11  1  0  0  0  0
 11 12  1  0  0  0  0
 12 13  1  0  0  0  0
 13 14  1  0  0  0  0
 14 15  1  0  0  0  0
 15 16  1  0  0  0  0
 16 17  1  0  0  0  0
 17 18  1  0  0  0  0
  9 19  1  0  0  0  0
 19 20  1  0  0  0  0
 20 21  1  0  0  0  0
 21 22  1  0  0  0  0
 22 23  1  0  0  0  0
 23 24  1  0  0  0  0
 24 25  1  0  0  0  0
 25 26  1  0  0  0  0
  1 27  1  0  0  0  0
  1 28  1  0  0  0  0
  1 29  1  0  0  0  0
  2 30  1  0  0  0  0
  2 31  1  0  0  0  0
  3 32  1  0  0  0  0
  3 33  1  0  0  0  0
  4 34  1  0  0  0  0
  4 35  1  0  0  0  0
  6 36  1  0  0  0  0
  6 37  1  0  0  0  0
  7 38  1  0  0  0  0
  7 39  1  0  0  0  0
 12 40  1  0  0  0  0
 12 41  1  0  0  0  0
 13 42  1  0  0  0  0
 13 43  1  0  0  0  0
 15 44  1  0  0  0  0
 15 45  1  0  0  0  0
 16 46  1  0  0  0  0
 16 47  1  0  0  0  0
 17 48  1  0  0  0  0
 17 49  1  0  0  0  0
 18 50  1  0  0  0  0
 18 51  1  0  0  0  0
 18 52  1  0  0  0  0
 20 53  1  0  0  0  0
 20 54  1  0  0  0  0
 21 55  1  0  0  0  0
 21 56  1  0  0  0  0
 23 57  1  0  0  0  0
 23 58  1  0  0  0  0
 24 59  1  0  0  0  0
 24 60  1  0  0  0  0
 25 61  1  0  0  0  0
 25 62  1  0  0  0  0
 26 63  1  0  0  0  0
 26 64  1  0  0  0  0
 26 65  1  0  0  0  0
M  END
> <id>
4112

> <casrn>
78-51-3

> <smiles (First)>


> <Molecular weight>
398.4718322753906

> <name>
tris(2-butoxyethyl) phosphate

> <Outcome>
0

> <Molecule (RDKit Mol) (InChI Code)>
InChI=1S/C18H39O7P/c1-4-7-10-20-13-16-23-26(19,24-17-14-21-11-8-5-2)25-18-15-22-12-9-6-3/h4-18H2,1-3H3

> <reference>
ECHA

> <molecule_form>
A

$$$$

  Mrv1812 01171911372D          

144146  0  0  0  0            999 V2000
    4.3212  -11.5244    0.0000 C   0  0  0  0  0  0  0  0  0  0  0  0
    3.6067  -11.1119    0.0000 C   0  0  0  0  0  0  0  0  0  0  0  0
    2.8923  -11.5244    0.0000 C   0  0  0  0  0  0  0  0  0  0  0  0
    2.8923  -12.3494    0.0000 N   0  0  0  0  0  0  0  0  0  0  0  0
    2.1778  -12.7619    0.0000 C   0  0  0  0  0  0  0  0  0  0  0  0
    1.4633  -12.3494    0.0000 O   0  0  0  0  0  0  0  0  0  0  0  0
    2.1778  -13.5869    0.0000 N   0  0  0  0  0  0  0  0  0  0  0  0
    1.4633  -13.9994    0.0000 C   0  0  0  0  0  0  0  0  0  0  0  0
    1.4633  -14.8244    0.0000 C   0  0  0  0  0  0  0  0  0  0  0  0
    2.1778  -15.2369    0.0000 C   0  0  0  0  0  0  0  0  0  0  0  0
    2.1778  -16.0619    0.0000 C   0  0  0  0  0  0  0  0  0  0  0  0
    1.4633  -16.4744    0.0000 C   0  0  0  0  0  0  0  0  0  0  0  0
    0.7489  -16.0619    0.0000 C   0  0  0  0  0  0  0  0  0  0  0  0
    0.0344  -16.4744    0.0000 C   0  0  0  0  0  0  0  0  0  0  0  0
    0.0344  -17.2994    0.0000 N   0  0  0  0  0  0  0  0  0  0  0  0
   -0.6801  -17.7119    0.0000 C   0  0  0  0  0  0  0  0  0  0  0  0
   -1.3946  -17.2994    0.0000 O   0  0  0  0  0  0  0  0  0  0  0  0
   -0.6801  -18.5369    0.0000 N   0  0  0  0  0  0  0  0  0  0  0  0
   -1.3946  -18.9494    0.0000 C   0  0  0  0  0  0  0  0  0  0  0  0
   -1.3946  -19.7744    0.0000 C   0  0  0  0  0  0  0  0  0  0  0  0
   -2.1090  -20.1869    0.0000 C   0  0  0  0  0  0  0  0  0  0  0  0
   -2.8235  -19.7744    0.0000 C   0  0  0  0  0  0  0  0  0  0  0  0
   -2.8235  -18.9494    0.0000 C   0  0  0  0  0  0  0  0  0  0  0  0
   -3.5380  -18.5369    0.0000 N   0  0  0  0  0  0  0  0  0  0  0  0
   -4.2524  -18.9494    0.0000 C   0  0  0  0  0  0  0  0  0  0  0  0
   -4.2524  -19.7744    0.0000 O   0  0  0  0  0  0  0  0  0  0  0  0
   -4.9669  -18.5369    0.0000 O   0  0  0  0  0  0  0  0  0  0  0  0
   -5.6814  -18.9494    0.0000 C   0  0  0  0  0  0  0  0  0  0  0  0
   -6.3959  -18.5369    0.0000 C   0  0  0  0  0  0  0  0  0  0  0  0
   -7.1103  -18.9494    0.0000 C   0  0  0  0  0  0  0  0  0  0  0  0
   -7.8248  -18.5369    0.0000 C   0  0  0  0  0  0  0  0  0  0  0  0
   -8.5393  -18.9494    0.0000 C   0  0  0  0  0  0  0  0  0  0  0  0
   -9.2537  -18.5369    0.0000 C   0  0  0  0  0  0  0  0  0  0  0  0
   -9.9682  -18.9494    0.0000 C   0  0  0  0  0  0  0  0  0  0  0  0
  -10.6827  -18.5369    0.0000 C   0  0  0  0  0  0  0  0  0  0  0  0
  -11.3972  -18.9494    0.0000 C   0  0  0  0  0  0  0  0  0  0  0  0
  -12.1116  -18.5369    0.0000 C   0  0  0  0  0  0  0  0  0  0  0  0
  -12.8261  -18.9494    0.0000 C   0  0  0  0  0  0  0  0  0  0  0  0
  -13.5406  -18.5369    0.0000 C   0  0  0  0  0  0  0  0  0  0  0  0
  -12.8261  -19.7744    0.0000 C   0  0  0  0  0  0  0  0  0  0  0  0
   -2.1090  -18.5369    0.0000 C   0  0  0  0  0  0  0  0  0  0  0  0
   -2.1090  -17.7119    0.0000 C   0  0  0  0  0  0  0  0  0  0  0  0
    0.7489  -15.2369    0.0000 C   0  0  0  0  0  0  0  0  0  0  0  0
    2.1778  -11.1119    0.0000 C   0  0  0  0  0  0  0  0  0  0  0  0
    2.1778  -10.2869    0.0000 C   0  0  0  0  0  0  0  0  0  0  0  0
    2.8923   -9.8744    0.0000 C   0  0  0  0  0  0  0  0  0  0  0  0
    3.6067  -10.2869    0.0000 C   0  0  0  0  0  0  0  0  0  0  0  0
    4.3212   -9.8744    0.0000 N   0  0  0  0  0  0  0  0  0  0  0  0
    5.0357  -10.2869    0.0000 C   0  0  0  0  0  0  0  0  0  0  0  0
    5.0357  -11.1119    0.0000 O   0  0  0  0  0  0  0  0  0  0  0  0
    5.7501   -9.8744    0.0000 O   0  0  0  0  0  0  0  0  0  0  0  0
    6.4646  -10.2869    0.0000 C   0  0  0  0  0  0  0  0  0  0  0  0
    7.1791   -9.8744    0.0000 C   0  0  0  0  0  0  0  0  0  0  0  0
    7.8936  -10.2869    0.0000 C   0  0  0  0  0  0  0  0  0  0  0  0
    8.6080   -9.8744    0.0000 C   0  0  0  0  0  0  0  0  0  0  0  0
    9.3225  -10.2869    0.0000 C   0  0  0  0  0  0  0  0  0  0  0  0
   10.0370   -9.8744    0.0000 C   0  0  0  0  0  0  0  0  0  0  0  0
   10.7514  -10.2869    0.0000 C   0  0  0  0  0  0  0  0  0  0  0  0
   11.4659   -9.8744    0.0000 C   0  0  0  0  0  0  0  0  0  0  0  0
   12.1804  -10.2869    0.0000 C   0  0  0  0  0  0  0  0  0  0  0  0
   12.8949   -9.8744    0.0000 C   0  0  0  0  0  0  0  0  0  0  0  0
   13.6093  -10.2869    0.0000 C   0  0  0  0  0  0  0  0  0  0  0  0
   14.3238   -9.8744    0.0000 C   0  0  0  0  0  0  0  0  0  0  0  0
   13.6093  -11.1119    0.0000 C   0  0  0  0  0  0  0  0  0  0  0  0
    3.6067  -11.9369    0.0000 H   0  0  0  0  0  0  0  0  0  0  0  0
    4.3212  -12.3494    0.0000 H   0  0  0  0  0  0  0  0  0  0  0  0
    5.0357  -11.9369    0.0000 H   0  0  0  0  0  0  0  0  0  0  0  0
    3.3048  -13.0639    0.0000 H   0  0  0  0  0  0  0  0  0  0  0  0
    2.8923  -13.9994    0.0000 H   0  0  0  0  0  0  0  0  0  0  0  0
    1.0100  -13.3102    0.0000 H   0  0  0  0  0  0  0  0  0  0  0  0
    0.6397  -13.9515    0.0000 H   0  0  0  0  0  0  0  0  0  0  0  0
    2.8923  -14.8244    0.0000 H   0  0  0  0  0  0  0  0  0  0  0  0
    2.8923  -16.4744    0.0000 H   0  0  0  0  0  0  0  0  0  0  0  0
    1.4633  -17.2994    0.0000 H   0  0  0  0  0  0  0  0  0  0  0  0
   -0.4190  -15.7852    0.0000 H   0  0  0  0  0  0  0  0  0  0  0  0
   -0.7892  -16.4265    0.0000 H   0  0  0  0  0  0  0  0  0  0  0  0
    0.7489  -17.7119    0.0000 H   0  0  0  0  0  0  0  0  0  0  0  0
    0.0344  -18.9494    0.0000 H   0  0  0  0  0  0  0  0  0  0  0  0
   -0.6801  -20.1869    0.0000 H   0  0  0  0  0  0  0  0  0  0  0  0
   -2.1090  -21.0119    0.0000 H   0  0  0  0  0  0  0  0  0  0  0  0
   -3.5380  -20.1869    0.0000 H   0  0  0  0  0  0  0  0  0  0  0  0
   -3.5380  -17.7119    0.0000 H   0  0  0  0  0  0  0  0  0  0  0  0
   -6.0516  -19.6867    0.0000 H   0  0  0  0  0  0  0  0  0  0  0  0
   -5.3111  -19.6867    0.0000 H   0  0  0  0  0  0  0  0  0  0  0  0
   -6.0256  -17.7997    0.0000 H   0  0  0  0  0  0  0  0  0  0  0  0
   -6.7661  -17.7997    0.0000 H   0  0  0  0  0  0  0  0  0  0  0  0
   -7.4806  -19.6867    0.0000 H   0  0  0  0  0  0  0  0  0  0  0  0
   -6.7401  -19.6867    0.0000 H   0  0  0  0  0  0  0  0  0  0  0  0
   -7.4545  -17.7997    0.0000 H   0  0  0  0  0  0  0  0  0  0  0  0
   -8.1951  -17.7997    0.0000 H   0  0  0  0  0  0  0  0  0  0  0  0
   -8.9095  -19.6867    0.0000 H   0  0  0  0  0  0  0  0  0  0  0  0
   -8.1690  -19.6867    0.0000 H   0  0  0  0  0  0  0  0  0  0  0  0
   -8.8835  -17.7997    0.0000 H   0  0  0  0  0  0  0  0  0  0  0  0
   -9.6240  -17.7997    0.0000 H   0  0  0  0  0  0  0  0  0  0  0  0
  -10.3385  -19.6867    0.0000 H   0  0  0  0  0  0  0  0  0  0  0  0
   -9.5980  -19.6867    0.0000 H   0  0  0  0  0  0  0  0  0  0  0  0
  -10.3124  -17.7997    0.0000 H   0  0  0  0  0  0  0  0  0  0  0  0
  -11.0529  -17.7997    0.0000 H   0  0  0  0  0  0  0  0  0  0  0  0
  -11.7674  -19.6867    0.0000 H   0  0  0  0  0  0  0  0  0  0  0  0
  -11.0269  -19.6867    0.0000 H   0  0  0  0  0  0  0  0  0  0  0  0
  -11.7414  -17.7997    0.0000 H   0  0  0  0  0  0  0  0  0  0  0  0
  -12.4819  -17.7997    0.0000 H   0  0  0  0  0  0  0  0  0  0  0  0
  -12.8261  -18.1244    0.0000 H   0  0  0  0  0  0  0  0  0  0  0  0
  -13.7541  -17.7401    0.0000 H   0  0  0  0  0  0  0  0  0  0  0  0
  -14.3656  -18.5369    0.0000 H   0  0  0  0  0  0  0  0  0  0  0  0
  -13.7541  -19.3338    0.0000 H   0  0  0  0  0  0  0  0  0  0  0  0
  -13.6511  -19.7744    0.0000 H   0  0  0  0  0  0  0  0  0  0  0  0
  -12.8261  -20.5994    0.0000 H   0  0  0  0  0  0  0  0  0  0  0  0
  -12.0011  -19.7744    0.0000 H   0  0  0  0  0  0  0  0  0  0  0  0
   -2.1090  -16.8869    0.0000 H   0  0  0  0  0  0  0  0  0  0  0  0
   -2.8235  -17.2994    0.0000 H   0  0  0  0  0  0  0  0  0  0  0  0
   -2.8235  -18.1244    0.0000 H   0  0  0  0  0  0  0  0  0  0  0  0
    0.0344  -14.8244    0.0000 H   0  0  0  0  0  0  0  0  0  0  0  0
    1.4633  -11.5244    0.0000 H   0  0  0  0  0  0  0  0  0  0  0  0
    1.4633   -9.8744    0.0000 H   0  0  0  0  0  0  0  0  0  0  0  0
    2.8923   -9.0494    0.0000 H   0  0  0  0  0  0  0  0  0  0  0  0
    4.3212   -9.0494    0.0000 H   0  0  0  0  0  0  0  0  0  0  0  0
    6.0944  -11.0242    0.0000 H   0  0  0  0  0  0  0  0  0  0  0  0
    6.8349  -11.0242    0.0000 H   0  0  0  0  0  0  0  0  0  0  0  0
    7.5494   -9.1372    0.0000 H   0  0  0  0  0  0  0  0  0  0  0  0
    6.8088   -9.1372    0.0000 H   0  0  0  0  0  0  0  0  0  0  0  0
    7.5233  -11.0242    0.0000 H   0  0  0  0  0  0  0  0  0  0  0  0
    8.2638  -11.0242    0.0000 H   0  0  0  0  0  0  0  0  0  0  0  0
    8.9783   -9.1372    0.0000 H   0  0  0  0  0  0  0  0  0  0  0  0
    8.2378   -9.1372    0.0000 H   0  0  0  0  0  0  0  0  0  0  0  0
    8.9522  -11.0242    0.0000 H   0  0  0  0  0  0  0  0  0  0  0  0
    9.6928  -11.0242    0.0000 H   0  0  0  0  0  0  0  0  0  0  0  0
   10.4072   -9.1372    0.0000 H   0  0  0  0  0  0  0  0  0  0  0  0
    9.6667   -9.1372    0.0000 H   0  0  0  0  0  0  0  0  0  0  0  0
   10.3812  -11.0242    0.0000 H   0  0  0  0  0  0  0  0  0  0  0  0
   11.1217  -11.0242    0.0000 H   0  0  0  0  0  0  0  0  0  0  0  0
   11.8362   -9.1372    0.0000 H   0  0  0  0  0  0  0  0  0  0  0  0
   11.0957   -9.1372    0.0000 H   0  0  0  0  0  0  0  0  0  0  0  0
   11.8101  -11.0242    0.0000 H   0  0  0  0  0  0  0  0  0  0  0  0
   12.5506  -11.0242    0.0000 H   0  0  0  0  0  0  0  0  0  0  0  0
   13.2651   -9.1372    0.0000 H   0  0  0  0  0  0  0  0  0  0  0  0
   12.5246   -9.1372    0.0000 H   0  0  0  0  0  0  0  0  0  0  0  0
   13.6093   -9.4619    0.0000 H   0  0  0  0  0  0  0  0  0  0  0  0
   14.5373  -10.6713    0.0000 H   0  0  0  0  0  0  0  0  0  0  0  0
   15.1488   -9.8744    0.0000 H   0  0  0  0  0  0  0  0  0  0  0  0
   14.5373   -9.0776    0.0000 H   0  0  0  0  0  0  0  0  0  0  0  0
   12.7843  -11.1119    0.0000 H   0  0  0  0  0  0  0  0  0  0  0  0
   13.6093  -11.9369    0.0000 H   0  0  0  0  0  0  0  0  0  0  0  0
   14.4343  -11.1119    0.0000 H   0  0  0  0  0  0  0  0  0  0  0  0
  1  2  1  0  0  0  0
  2  3  4  0  0  0  0
  3  4  1  0  0  0  0
  4  5  1  0  0  0  0
  5  6  2  0  0  0  0
  5  7  1  0  0  0  0
  7  8  1  0  0  0  0
  8  9  1  0  0  0  0
  9 10  4  0  0  0  0
 10 11  4  0  0  0  0
 11 12  4  0  0  0  0
 12 13  4  0  0  0  0
 13 14  1  0  0  0  0
 14 15  1  0  0  0  0
 15 16  1  0  0  0  0
 16 17  2  0  0  0  0
 16 18  1  0  0  0  0
 18 19  1  0  0  0  0
 19 20  4  0  0  0  0
 20 21  4  0  0  0  0
 21 22  4  0  0  0  0
 22 23  4  0  0  0  0
 23 24  1  0  0  0  0
 24 25  1  0  0  0  0
 25 26  2  0  0  0  0
 25 27  1  0  0  0  0
 27 28  1  0  0  0  0
 28 29  1  0  0  0  0
 29 30  1  0  0  0  0
 30 31  1  0  0  0  0
 31 32  1  0  0  0  0
 32 33  1  0  0  0  0
 33 34  1  0  0  0  0
 34 35  1  0  0  0  0
 35 36  1  0  0  0  0
 36 37  1  0  0  0  0
 37 38  1  0  0  0  0
 38 39  1  0  0  0  0
 38 40  1  0  0  0  0
 23 41  4  0  0  0  0
 19 41  4  0  0  0  0
 41 42  1  0  0  0  0
 13 43  4  0  0  0  0
  9 43  4  0  0  0  0
  3 44  4  0  0  0  0
 44 45  4  0  0  0  0
 45 46  4  0  0  0  0
 46 47  4  0  0  0  0
  2 47  4  0  0  0  0
 47 48  1  0  0  0  0
 48 49  1  0  0  0  0
 49 50  2  0  0  0  0
 49 51  1  0  0  0  0
 51 52  1  0  0  0  0
 52 53  1  0  0  0  0
 53 54  1  0  0  0  0
 54 55  1  0  0  0  0
 55 56  1  0  0  0  0
 56 57  1  0  0  0  0
 57 58  1  0  0  0  0
 58 59  1  0  0  0  0
 59 60  1  0  0  0  0
 60 61  1  0  0  0  0
 61 62  1  0  0  0  0
 62 63  1  0  0  0  0
 62 64  1  0  0  0  0
  1 65  1  0  0  0  0
  1 66  1  0  0  0  0
  1 67  1  0  0  0  0
  4 68  1  0  0  0  0
  7 69  1  0  0  0  0
  8 70  1  0  0  0  0
  8 71  1  0  0  0  0
 10 72  1  0  0  0  0
 11 73  1  0  0  0  0
 12 74  1  0  0  0  0
 14 75  1  0  0  0  0
 14 76  1  0  0  0  0
 15 77  1  0  0  0  0
 18 78  1  0  0  0  0
 20 79  1  0  0  0  0
 21 80  1  0  0  0  0
 22 81  1  0  0  0  0
 24 82  1  0  0  0  0
 28 83  1  0  0  0  0
 28 84  1  0  0  0  0
 29 85  1  0  0  0  0
 29 86  1  0  0  0  0
 30 87  1  0  0  0  0
 30 88  1  0  0  0  0
 31 89  1  0  0  0  0
 31 90  1  0  0  0  0
 32 91  1  0  0  0  0
 32 92  1  0  0  0  0
 33 93  1  0  0  0  0
 33 94  1  0  0  0  0
 34 95  1  0  0  0  0
 34 96  1  0  0  0  0
 35 97  1  0  0  0  0
 35 98  1  0  0  0  0
 36 99  1  0  0  0  0
 36100  1  0  0  0  0
 37101  1  0  0  0  0
 37102  1  0  0  0  0
 38103  1  0  0  0  0
 39104  1  0  0  0  0
 39105  1  0  0  0  0
 39106  1  0  0  0  0
 40107  1  0  0  0  0
 40108  1  0  0  0  0
 40109  1  0  0  0  0
 42110  1  0  0  0  0
 42111  1  0  0  0  0
 42112  1  0  0  0  0
 43113  1  0  0  0  0
 44114  1  0  0  0  0
 45115  1  0  0  0  0
 46116  1  0  0  0  0
 48117  1  0  0  0  0
 52118  1  0  0  0  0
 52119  1  0  0  0  0
 53120  1  0  0  0  0
 53121  1  0  0  0  0
 54122  1  0  0  0  0
 54123  1  0  0  0  0
 55124  1  0  0  0  0
 55125  1  0  0  0  0
 56126  1  0  0  0  0
 56127  1  0  0  0  0
 57128  1  0  0  0  0
 57129  1  0  0  0  0
 58130  1  0  0  0  0
 58131  1  0  0  0  0
 59132  1  0  0  0  0
 59133  1  0  0  0  0
 60134  1  0  0  0  0
 60135  1  0  0  0  0
 61136  1  0  0  0  0
 61137  1  0  0  0  0
 62138  1  0  0  0  0
 63139  1  0  0  0  0
 63140  1  0  0  0  0
 63141  1  0  0  0  0
 64142  1  0  0  0  0
 64143  1  0  0  0  0
 64144  1  0  0  0  0
M  END
> <id>
4311

> <casrn>
865536-03-4

> <smiles (First)>


> <Molecular weight>
885.2282104492188

> <name>
unnamed [865536-03-4]

> <Outcome>
0

> <Molecule (RDKit Mol) (InChI Code)>
InChI=1S/C52H80N6O6/c1-39(2)26-19-15-11-7-9-13-17-21-34-63-51(61)57-47-32-24-30-45(41(47)5)55-49(59)53-37-43-28-23-29-44(36-43)38-54-50(60)56-46-31-25-33-48(42(46)6)58-52(62)64-35-22-18-14-10-8-12-16-20-27-40(3)4/h23-25,28-33,36,39-40H,7-22,26-27,34-35,37-38H2,1-6H3,(H,57,61)(H,58,62)(H2,53,55,59)(H2,54,56,60)

> <reference>
ECHA

> <molecule_form>
A

$$$$

  Mrv1812 01171911372D          

 16 16  0  0  0  0            999 V2000
   -0.0019    2.4738    0.0000 O   0  0  0  0  0  0  0  0  0  0  0  0
    0.7125    2.0613    0.0000 C   0  0  0  0  0  0  0  0  0  0  0  0
    0.7125    1.2363    0.0000 C   0  0  0  0  0  0  0  0  0  0  0  0
    1.4270    0.8238    0.0000 C   0  0  0  0  0  0  0  0  0  0  0  0
    1.4270   -0.0012    0.0000 C   0  0  0  0  0  0  0  0  0  0  0  0
    0.7125   -0.4137    0.0000 C   0  0  0  0  0  0  0  0  0  0  0  0
   -0.0019   -0.0012    0.0000 C   0  0  0  0  0  0  0  0  0  0  0  0
   -0.0019    0.8238    0.0000 C   0  0  0  0  0  0  0  0  0  0  0  0
   -0.0019    3.2988    0.0000 H   0  0  0  0  0  0  0  0  0  0  0  0
    1.5361    2.1093    0.0000 H   0  0  0  0  0  0  0  0  0  0  0  0
    1.1659    2.7506    0.0000 H   0  0  0  0  0  0  0  0  0  0  0  0
    2.1415    1.2363    0.0000 H   0  0  0  0  0  0  0  0  0  0  0  0
    2.1415   -0.4137    0.0000 H   0  0  0  0  0  0  0  0  0  0  0  0
    0.7125   -1.2387    0.0000 H   0  0  0  0  0  0  0  0  0  0  0  0
   -0.7164   -0.4137    0.0000 H   0  0  0  0  0  0  0  0  0  0  0  0
   -0.7164    1.2363    0.0000 H   0  0  0  0  0  0  0  0  0  0  0  0
  1  2  1  0  0  0  0
  2  3  1  0  0  0  0
  3  4  4  0  0  0  0
  4  5  4  0  0  0  0
  5  6  4  0  0  0  0
  6  7  4  0  0  0  0
  7  8  4  0  0  0  0
  3  8  4  0  0  0  0
  1  9  1  0  0  0  0
  2 10  1  0  0  0  0
  2 11  1  0  0  0  0
  4 12  1  0  0  0  0
  5 13  1  0  0  0  0
  6 14  1  0  0  0  0
  7 15  1  0  0  0  0
  8 16  1  0  0  0  0
M  END
> <id>
3729

> <casrn>
100-51-6

> <smiles (First)>


> <Molecular weight>
108.13782501220703

> <name>
phenylmethanol

> <Outcome>
0

> <Molecule (RDKit Mol) (InChI Code)>
InChI=1S/C7H8O/c8-6-7-4-2-1-3-5-7/h1-5,8H,6H2

> <reference>
ECHA

> <molecule_form>
A

$$$$

  Mrv1812 01171911372D          

 21 20  0  0  0  0            999 V2000
    1.3243    2.2320    0.0000 C   0  0  0  0  0  0  0  0  0  0  0  0
    0.9118    1.5175    0.0000 C   0  0  0  0  0  0  0  0  0  0  0  0
    0.0868    1.5175    0.0000 C   0  0  0  0  0  0  0  0  0  0  0  0
    1.3243    0.8031    0.0000 C   0  0  0  0  0  0  0  0  0  0  0  0
    0.9118    0.0886    0.0000 C   0  0  0  0  0  0  0  0  0  0  0  0
    1.3243   -0.6259    0.0000 C   0  0  0  0  0  0  0  0  0  0  0  0
    0.0868    0.0886    0.0000 O   0  0  0  0  0  0  0  0  0  0  0  0
    2.0388    1.8195    0.0000 H   0  0  0  0  0  0  0  0  0  0  0  0
    1.7368    2.9465    0.0000 H   0  0  0  0  0  0  0  0  0  0  0  0
    0.6099    2.6445    0.0000 H   0  0  0  0  0  0  0  0  0  0  0  0
    0.4993    2.2320    0.0000 H   0  0  0  0  0  0  0  0  0  0  0  0
   -0.4965    2.1009    0.0000 H   0  0  0  0  0  0  0  0  0  0  0  0
   -0.6276    1.1050    0.0000 H   0  0  0  0  0  0  0  0  0  0  0  0
    0.3003    0.7206    0.0000 H   0  0  0  0  0  0  0  0  0  0  0  0
    2.0616    0.4328    0.0000 H   0  0  0  0  0  0  0  0  0  0  0  0
    2.0616    1.1733    0.0000 H   0  0  0  0  0  0  0  0  0  0  0  0
    1.7368    0.0886    0.0000 H   0  0  0  0  0  0  0  0  0  0  0  0
    0.5274   -0.8394    0.0000 H   0  0  0  0  0  0  0  0  0  0  0  0
    1.3243   -1.4509    0.0000 H   0  0  0  0  0  0  0  0  0  0  0  0
    2.1212   -0.8394    0.0000 H   0  0  0  0  0  0  0  0  0  0  0  0
   -0.5834   -0.3925    0.0000 H   0  0  0  0  0  0  0  0  0  0  0  0
  1  2  1  0  0  0  0
  2  3  1  0  0  0  0
  2  4  1  0  0  0  0
  4  5  1  0  0  0  0
  5  6  1  0  0  0  0
  5  7  1  0  0  0  0
  1  8  1  0  0  0  0
  1  9  1  0  0  0  0
  1 10  1  0  0  0  0
  2 11  1  0  0  0  0
  3 12  1  0  0  0  0
  3 13  1  0  0  0  0
  3 14  1  0  0  0  0
  4 15  1  0  0  0  0
  4 16  1  0  0  0  0
  5 17  1  0  0  0  0
  6 18  1  0  0  0  0
  6 19  1  0  0  0  0
  6 20  1  0  0  0  0
  7 21  1  0  0  0  0
M  END
> <id>
1847

> <casrn>
108-11-2

> <smiles (First)>


> <Molecular weight>
102.17475891113281

> <name>
4-methylpentan-2-ol

> <Outcome>
1

> <Molecule (RDKit Mol) (InChI Code)>
InChI=1S/C6H14O/c1-5(2)4-6(3)7/h5-7H,4H2,1-3H3

> <reference>
ECHA

> <molecule_form>
V

$$$$

  Mrv1812 01171911372D          

 21 20  0  0  0  0            999 V2000
    2.8157    0.5779    0.0000 O   0  0  0  0  0  0  0  0  0  0  0  0
    2.1012    0.1654    0.0000 C   0  0  0  0  0  0  0  0  0  0  0  0
    1.3867    0.5779    0.0000 C   0  0  0  0  0  0  0  0  0  0  0  0
    0.6722    0.9904    0.0000 C   0  0  0  0  0  0  0  0  0  0  0  0
   -0.0422    0.5779    0.0000 O   0  0  0  0  0  0  0  0  0  0  0  0
    1.7992    1.2924    0.0000 C   0  0  0  0  0  0  0  0  0  0  0  0
    1.3867    2.0069    0.0000 O   0  0  0  0  0  0  0  0  0  0  0  0
    0.9742   -0.1366    0.0000 C   0  0  0  0  0  0  0  0  0  0  0  0
    0.1492   -0.1366    0.0000 O   0  0  0  0  0  0  0  0  0  0  0  0
    3.5301    0.1654    0.0000 H   0  0  0  0  0  0  0  0  0  0  0  0
    1.7309   -0.5718    0.0000 H   0  0  0  0  0  0  0  0  0  0  0  0
    2.4714   -0.5718    0.0000 H   0  0  0  0  0  0  0  0  0  0  0  0
    1.0425    1.7277    0.0000 H   0  0  0  0  0  0  0  0  0  0  0  0
    0.3020    1.7277    0.0000 H   0  0  0  0  0  0  0  0  0  0  0  0
   -0.8044    0.8936    0.0000 H   0  0  0  0  0  0  0  0  0  0  0  0
    2.5365    0.9221    0.0000 H   0  0  0  0  0  0  0  0  0  0  0  0
    2.5365    1.6626    0.0000 H   0  0  0  0  0  0  0  0  0  0  0  0
    1.5367    2.8181    0.0000 H   0  0  0  0  0  0  0  0  0  0  0  0
    0.7613   -0.9336    0.0000 H   0  0  0  0  0  0  0  0  0  0  0  0
    0.5617    0.5779    0.0000 H   0  0  0  0  0  0  0  0  0  0  0  0
   -0.3530   -0.7911    0.0000 H   0  0  0  0  0  0  0  0  0  0  0  0
  1  2  1  0  0  0  0
  2  3  1  0  0  0  0
  3  4  1  0  0  0  0
  4  5  1  0  0  0  0
  3  6  1  0  0  0  0
  6  7  1  0  0  0  0
  3  8  1  0  0  0  0
  8  9  1  0  0  0  0
  1 10  1  0  0  0  0
  2 11  1  0  0  0  0
  2 12  1  0  0  0  0
  4 13  1  0  0  0  0
  4 14  1  0  0  0  0
  5 15  1  0  0  0  0
  6 16  1  0  0  0  0
  6 17  1  0  0  0  0
  7 18  1  0  0  0  0
  8 19  1  0  0  0  0
  8 20  1  0  0  0  0
  9 21  1  0  0  0  0
M  END
> <id>
1268

> <casrn>
115-77-5

> <smiles (First)>


> <Molecular weight>
136.14637756347656

> <name>
2,2-bis(hydroxymethyl)propane-1,3-diol

> <Outcome>
0

> <Molecule (RDKit Mol) (InChI Code)>
InChI=1S/C5H12O4/c6-1-5(2-7,3-8)4-9/h6-9H,1-4H2

> <reference>
ECHA

> <molecule_form>
A

$$$$

  Mrv1812 01171911372D          

 39 38  0  0  0  0            999 V2000
    1.7899    1.8870    0.0000 C   0  0  0  0  0  0  0  0  0  0  0  0
    2.5044    1.4745    0.0000 C   0  0  0  0  0  0  0  0  0  0  0  0
    3.2188    1.8870    0.0000 C   0  0  0  0  0  0  0  0  0  0  0  0
    3.9333    1.4745    0.0000 C   0  0  0  0  0  0  0  0  0  0  0  0
    4.6478    1.8870    0.0000 C   0  0  0  0  0  0  0  0  0  0  0  0
    4.6478    2.7120    0.0000 C   0  0  0  0  0  0  0  0  0  0  0  0
    5.3622    3.1245    0.0000 C   0  0  0  0  0  0  0  0  0  0  0  0
    5.3622    1.4745    0.0000 C   0  0  0  0  0  0  0  0  0  0  0  0
    5.3622    0.6495    0.0000 O   0  0  0  0  0  0  0  0  0  0  0  0
    6.0767    1.8870    0.0000 O   0  0  0  0  0  0  0  0  0  0  0  0
    6.7912    1.4745    0.0000 O   0  0  0  0  0  0  0  0  0  0  0  0
    7.5056    1.8870    0.0000 C   0  0  0  0  0  0  0  0  0  0  0  0
    8.2201    2.2995    0.0000 C   0  0  0  0  0  0  0  0  0  0  0  0
    7.9181    1.1725    0.0000 C   0  0  0  0  0  0  0  0  0  0  0  0
    7.0931    2.6015    0.0000 C   0  0  0  0  0  0  0  0  0  0  0  0
    2.2024    2.6015    0.0000 H   0  0  0  0  0  0  0  0  0  0  0  0
    1.0754    2.2995    0.0000 H   0  0  0  0  0  0  0  0  0  0  0  0
    1.3774    1.1725    0.0000 H   0  0  0  0  0  0  0  0  0  0  0  0
    2.1341    0.7372    0.0000 H   0  0  0  0  0  0  0  0  0  0  0  0
    2.8746    0.7372    0.0000 H   0  0  0  0  0  0  0  0  0  0  0  0
    3.5891    2.6242    0.0000 H   0  0  0  0  0  0  0  0  0  0  0  0
    2.8486    2.6242    0.0000 H   0  0  0  0  0  0  0  0  0  0  0  0
    3.5630    0.7372    0.0000 H   0  0  0  0  0  0  0  0  0  0  0  0
    4.3036    0.7372    0.0000 H   0  0  0  0  0  0  0  0  0  0  0  0
    3.9333    2.2995    0.0000 H   0  0  0  0  0  0  0  0  0  0  0  0
    4.5045    3.5244    0.0000 H   0  0  0  0  0  0  0  0  0  0  0  0
    4.0158    3.2423    0.0000 H   0  0  0  0  0  0  0  0  0  0  0  0
    5.5931    2.3324    0.0000 H   0  0  0  0  0  0  0  0  0  0  0  0
    6.1864    3.1605    0.0000 H   0  0  0  0  0  0  0  0  0  0  0  0
    5.5232    3.9336    0.0000 H   0  0  0  0  0  0  0  0  0  0  0  0
    8.6326    1.5850    0.0000 H   0  0  0  0  0  0  0  0  0  0  0  0
    8.9346    2.7120    0.0000 H   0  0  0  0  0  0  0  0  0  0  0  0
    7.8076    3.0140    0.0000 H   0  0  0  0  0  0  0  0  0  0  0  0
    7.1002    1.0648    0.0000 H   0  0  0  0  0  0  0  0  0  0  0  0
    7.7046    0.3756    0.0000 H   0  0  0  0  0  0  0  0  0  0  0  0
    8.5727    0.6703    0.0000 H   0  0  0  0  0  0  0  0  0  0  0  0
    6.9855    3.4194    0.0000 H   0  0  0  0  0  0  0  0  0  0  0  0
    6.2963    2.8150    0.0000 H   0  0  0  0  0  0  0  0  0  0  0  0
    6.5909    1.9469    0.0000 H   0  0  0  0  0  0  0  0  0  0  0  0
  1  2  1  0  0  0  0
  2  3  1  0  0  0  0
  3  4  1  0  0  0  0
  4  5  1  0  0  0  0
  5  6  1  0  0  0  0
  6  7  1  0  0  0  0
  5  8  1  0  0  0  0
  8  9  2  0  0  0  0
  8 10  1  0  0  0  0
 10 11  1  0  0  0  0
 11 12  1  0  0  0  0
 12 13  1  0  0  0  0
 12 14  1  0  0  0  0
 12 15  1  0  0  0  0
  1 16  1  0  0  0  0
  1 17  1  0  0  0  0
  1 18  1  0  0  0  0
  2 19  1  0  0  0  0
  2 20  1  0  0  0  0
  3 21  1  0  0  0  0
  3 22  1  0  0  0  0
  4 23  1  0  0  0  0
  4 24  1  0  0  0  0
  5 25  1  0  0  0  0
  6 26  1  0  0  0  0
  6 27  1  0  0  0  0
  7 28  1  0  0  0  0
  7 29  1  0  0  0  0
  7 30  1  0  0  0  0
 13 31  1  0  0  0  0
 13 32  1  0  0  0  0
 13 33  1  0  0  0  0
 14 34  1  0  0  0  0
 14 35  1  0  0  0  0
 14 36  1  0  0  0  0
 15 37  1  0  0  0  0
 15 38  1  0  0  0  0
 15 39  1  0  0  0  0
M  END
> <id>
3912

> <casrn>
3006-82-4

> <smiles (First)>


> <Molecular weight>
216.31716918945312

> <name>
tert-butyl 2-ethylhexaneperoxoate

> <Outcome>
0

> <Molecule (RDKit Mol) (InChI Code)>
InChI=1S/C12H24O3/c1-6-8-9-10(7-2)11(13)14-15-12(3,4)5/h10H,6-9H2,1-5H3

> <reference>
ECHA

> <molecule_form>
A

$$$$

  Mrv1812 01171911372D          

 37 36  0  0  0  0            999 V2000
    2.1522    3.1023    0.0000 C   0  0  0  0  0  0  0  0  0  0  0  0
    1.4377    2.6898    0.0000 C   0  0  0  0  0  0  0  0  0  0  0  0
    1.4377    1.8648    0.0000 O   0  0  0  0  0  0  0  0  0  0  0  0
    0.7233    1.4523    0.0000 Si  0  0  0  0  0  0  0  0  0  0  0  0
    0.0088    1.0398    0.0000 C   0  0  0  0  0  0  0  0  0  0  0  0
   -0.7057    1.4523    0.0000 C   0  0  0  0  0  0  0  0  0  0  0  0
   -1.4202    1.0398    0.0000 C   0  0  0  0  0  0  0  0  0  0  0  0
   -1.4202    0.2148    0.0000 N   0  0  0  0  0  0  0  0  0  0  0  0
    0.3108    2.1668    0.0000 O   0  0  0  0  0  0  0  0  0  0  0  0
   -0.5142    2.1668    0.0000 C   0  0  0  0  0  0  0  0  0  0  0  0
   -0.9267    2.8812    0.0000 C   0  0  0  0  0  0  0  0  0  0  0  0
    1.1358    0.7378    0.0000 O   0  0  0  0  0  0  0  0  0  0  0  0
    0.7233    0.0234    0.0000 C   0  0  0  0  0  0  0  0  0  0  0  0
   -0.1017    0.0234    0.0000 C   0  0  0  0  0  0  0  0  0  0  0  0
    2.5647    2.3878    0.0000 H   0  0  0  0  0  0  0  0  0  0  0  0
    2.8667    3.5148    0.0000 H   0  0  0  0  0  0  0  0  0  0  0  0
    1.7397    3.8168    0.0000 H   0  0  0  0  0  0  0  0  0  0  0  0
    0.9844    3.3791    0.0000 H   0  0  0  0  0  0  0  0  0  0  0  0
    0.6141    2.7378    0.0000 H   0  0  0  0  0  0  0  0  0  0  0  0
   -0.3615    0.3026    0.0000 H   0  0  0  0  0  0  0  0  0  0  0  0
    0.3790    0.3026    0.0000 H   0  0  0  0  0  0  0  0  0  0  0  0
   -1.3602    1.9545    0.0000 H   0  0  0  0  0  0  0  0  0  0  0  0
    0.0565    1.7680    0.0000 H   0  0  0  0  0  0  0  0  0  0  0  0
   -2.1835    1.3527    0.0000 H   0  0  0  0  0  0  0  0  0  0  0  0
   -2.2023    0.7775    0.0000 H   0  0  0  0  0  0  0  0  0  0  0  0
   -1.5183   -0.6043    0.0000 H   0  0  0  0  0  0  0  0  0  0  0  0
   -0.6979   -0.1838    0.0000 H   0  0  0  0  0  0  0  0  0  0  0  0
    0.1177    2.6971    0.0000 H   0  0  0  0  0  0  0  0  0  0  0  0
   -0.3710    2.9792    0.0000 H   0  0  0  0  0  0  0  0  0  0  0  0
   -0.8191    3.6992    0.0000 H   0  0  0  0  0  0  0  0  0  0  0  0
   -1.6744    3.2299    0.0000 H   0  0  0  0  0  0  0  0  0  0  0  0
   -1.4841    2.2730    0.0000 H   0  0  0  0  0  0  0  0  0  0  0  0
    0.7712   -0.8002    0.0000 H   0  0  0  0  0  0  0  0  0  0  0  0
    1.4125   -0.4300    0.0000 H   0  0  0  0  0  0  0  0  0  0  0  0
   -0.3460   -0.7647    0.0000 H   0  0  0  0  0  0  0  0  0  0  0  0
    0.3877   -0.6408    0.0000 H   0  0  0  0  0  0  0  0  0  0  0  0
    0.0197    0.8394    0.0000 H   0  0  0  0  0  0  0  0  0  0  0  0
  1  2  1  0  0  0  0
  2  3  1  0  0  0  0
  3  4  1  0  0  0  0
  4  5  1  0  0  0  0
  5  6  1  0  0  0  0
  6  7  1  0  0  0  0
  7  8  1  0  0  0  0
  4  9  1  0  0  0  0
  9 10  1  0  0  0  0
 10 11  1  0  0  0  0
  4 12  1  0  0  0  0
 12 13  1  0  0  0  0
 13 14  1  0  0  0  0
  1 15  1  0  0  0  0
  1 16  1  0  0  0  0
  1 17  1  0  0  0  0
  2 18  1  0  0  0  0
  2 19  1  0  0  0  0
  5 20  1  0  0  0  0
  5 21  1  0  0  0  0
  6 22  1  0  0  0  0
  6 23  1  0  0  0  0
  7 24  1  0  0  0  0
  7 25  1  0  0  0  0
  8 26  1  0  0  0  0
  8 27  1  0  0  0  0
 10 28  1  0  0  0  0
 10 29  1  0  0  0  0
 11 30  1  0  0  0  0
 11 31  1  0  0  0  0
 11 32  1  0  0  0  0
 13 33  1  0  0  0  0
 13 34  1  0  0  0  0
 14 35  1  0  0  0  0
 14 36  1  0  0  0  0
 14 37  1  0  0  0  0
M  END
> <id>
190

> <casrn>
919-30-2

> <smiles (First)>


> <Molecular weight>
221.36932373046875

> <name>
(3-aminopropyl)triethoxysilane

> <Outcome>
0

> <Molecule (RDKit Mol) (InChI Code)>
InChI=1S/C9H23NO3Si/c1-4-11-14(12-5-2,13-6-3)9-7-8-10/h4-10H2,1-3H3

> <reference>
ECHA

> <molecule_form>
A

$$$$

  Mrv1812 01171911372D          

 18 18  0  0  0  0            999 V2000
    0.7145    1.2375    0.0000 C   0  0  0  0  0  0  0  0  0  0  0  0
    1.4289    0.8250    0.0000 C   0  0  0  0  0  0  0  0  0  0  0  0
    1.4289   -0.0000    0.0000 C   0  0  0  0  0  0  0  0  0  0  0  0
    0.7145   -0.4125    0.0000 C   0  0  0  0  0  0  0  0  0  0  0  0
    0.0000    0.0000    0.0000 C   0  0  0  0  0  0  0  0  0  0  0  0
    0.0000    0.8250    0.0000 C   0  0  0  0  0  0  0  0  0  0  0  0
    1.0847    1.9747    0.0000 H   0  0  0  0  0  0  0  0  0  0  0  0
    0.3442    1.9747    0.0000 H   0  0  0  0  0  0  0  0  0  0  0  0
    2.2525    0.8730    0.0000 H   0  0  0  0  0  0  0  0  0  0  0  0
    1.8823    1.5143    0.0000 H   0  0  0  0  0  0  0  0  0  0  0  0
    1.8823   -0.6893    0.0000 H   0  0  0  0  0  0  0  0  0  0  0  0
    2.2525   -0.0480    0.0000 H   0  0  0  0  0  0  0  0  0  0  0  0
    0.3442   -1.1497    0.0000 H   0  0  0  0  0  0  0  0  0  0  0  0
    1.0847   -1.1497    0.0000 H   0  0  0  0  0  0  0  0  0  0  0  0
   -0.8236   -0.0480    0.0000 H   0  0  0  0  0  0  0  0  0  0  0  0
   -0.4533   -0.6893    0.0000 H   0  0  0  0  0  0  0  0  0  0  0  0
   -0.4533    1.5143    0.0000 H   0  0  0  0  0  0  0  0  0  0  0  0
   -0.8236    0.8730    0.0000 H   0  0  0  0  0  0  0  0  0  0  0  0
  1  2  1  0  0  0  0
  2  3  1  0  0  0  0
  3  4  1  0  0  0  0
  4  5  1  0  0  0  0
  5  6  1  0  0  0  0
  1  6  1  0  0  0  0
  1  7  1  0  0  0  0
  1  8  1  0  0  0  0
  2  9  1  0  0  0  0
  2 10  1  0  0  0  0
  3 11  1  0  0  0  0
  3 12  1  0  0  0  0
  4 13  1  0  0  0  0
  4 14  1  0  0  0  0
  5 15  1  0  0  0  0
  5 16  1  0  0  0  0
  6 17  1  0  0  0  0
  6 18  1  0  0  0  0
M  END
> <id>
2831

> <casrn>
110-82-7

> <smiles (First)>


> <Molecular weight>
84.15948486328125

> <name>
cyclohexane

> <Outcome>
0

> <Molecule (RDKit Mol) (InChI Code)>
InChI=1S/C6H12/c1-2-4-6-5-3-1/h1-6H2

> <reference>
ECHA

> <molecule_form>
V

$$$$

  Mrv1812 01171911372D          

 25 25  0  0  0  0            999 V2000
    0.7157    2.0633    0.0000 C   0  0  0  0  0  0  0  0  0  0  0  0
    0.7157    1.2383    0.0000 C   0  0  0  0  0  0  0  0  0  0  0  0
    1.4302    0.8258    0.0000 C   0  0  0  0  0  0  0  0  0  0  0  0
    1.4302    0.0008    0.0000 C   0  0  0  0  0  0  0  0  0  0  0  0
    0.7157   -0.4117    0.0000 C   0  0  0  0  0  0  0  0  0  0  0  0
    0.7157   -1.2367    0.0000 S   0  0  0  0  0  0  0  0  0  0  0  0
   -0.1093   -1.2367    0.0000 O   0  0  0  0  0  0  0  0  0  0  0  0
    1.5407   -1.2367    0.0000 O   0  0  0  0  0  0  0  0  0  0  0  0
    0.7157   -2.0617    0.0000 C   0  0  0  0  0  0  0  0  0  0  0  0
    1.4302   -2.4742    0.0000 N   0  0  0  0  0  0  0  0  0  0  0  0
    1.4302   -3.2992    0.0000 C   0  0  0  0  0  0  0  0  0  0  0  0
    2.1447   -3.7117    0.0000 O   0  0  0  0  0  0  0  0  0  0  0  0
    0.0012    0.0008    0.0000 C   0  0  0  0  0  0  0  0  0  0  0  0
    0.0012    0.8258    0.0000 C   0  0  0  0  0  0  0  0  0  0  0  0
    1.5407    2.0633    0.0000 H   0  0  0  0  0  0  0  0  0  0  0  0
    0.7157    2.8883    0.0000 H   0  0  0  0  0  0  0  0  0  0  0  0
   -0.1093    2.0633    0.0000 H   0  0  0  0  0  0  0  0  0  0  0  0
    2.1447    1.2383    0.0000 H   0  0  0  0  0  0  0  0  0  0  0  0
    2.1447   -0.4117    0.0000 H   0  0  0  0  0  0  0  0  0  0  0  0
   -0.1079   -2.1097    0.0000 H   0  0  0  0  0  0  0  0  0  0  0  0
    0.2624   -2.7510    0.0000 H   0  0  0  0  0  0  0  0  0  0  0  0
    2.1447   -2.0617    0.0000 H   0  0  0  0  0  0  0  0  0  0  0  0
    0.7157   -3.7117    0.0000 H   0  0  0  0  0  0  0  0  0  0  0  0
   -0.7132   -0.4117    0.0000 H   0  0  0  0  0  0  0  0  0  0  0  0
   -0.7132    1.2383    0.0000 H   0  0  0  0  0  0  0  0  0  0  0  0
  1  2  1  0  0  0  0
  2  3  4  0  0  0  0
  3  4  4  0  0  0  0
  4  5  4  0  0  0  0
  5  6  1  0  0  0  0
  6  7  2  0  0  0  0
  6  8  2  0  0  0  0
  6  9  1  0  0  0  0
  9 10  1  0  0  0  0
 10 11  1  0  0  0  0
 11 12  2  0  0  0  0
  5 13  4  0  0  0  0
 13 14  4  0  0  0  0
  2 14  4  0  0  0  0
  1 15  1  0  0  0  0
  1 16  1  0  0  0  0
  1 17  1  0  0  0  0
  3 18  1  0  0  0  0
  4 19  1  0  0  0  0
  9 20  1  0  0  0  0
  9 21  1  0  0  0  0
 10 22  1  0  0  0  0
 11 23  1  0  0  0  0
 13 24  1  0  0  0  0
 14 25  1  0  0  0  0
M  END
> <id>
660

> <casrn>
36635-56-0

> <smiles (First)>


> <Molecular weight>
213.2535400390625

> <name>
-

> <Outcome>
0

> <Molecule (RDKit Mol) (InChI Code)>
InChI=1S/C9H11NO3S/c1-8-2-4-9(5-3-8)14(12,13)7-10-6-11/h2-6H,7H2,1H3,(H,10,11)

> <reference>
ECHA

> <molecule_form>
A

$$$$

  Mrv1812 01171911372D          

 11 10  0  0  0  0            999 V2000
    0.8250    1.4289    0.0000 C   0  0  0  0  0  0  0  0  0  0  0  0
    1.2375    0.7145    0.0000 N   0  0  0  0  0  0  0  0  0  0  0  0
    0.8250   -0.0000    0.0000 C   0  0  0  0  0  0  0  0  0  0  0  0
    1.2375   -0.7145    0.0000 N   0  0  0  0  0  0  0  0  0  0  0  0
   -0.0000   -0.0000    0.0000 O   0  0  0  0  0  0  0  0  0  0  0  0
    1.5395    1.8414    0.0000 H   0  0  0  0  0  0  0  0  0  0  0  0
    0.4125    2.1434    0.0000 H   0  0  0  0  0  0  0  0  0  0  0  0
    0.1105    1.0164    0.0000 H   0  0  0  0  0  0  0  0  0  0  0  0
    2.0625    0.7145    0.0000 H   0  0  0  0  0  0  0  0  0  0  0  0
    0.8250   -1.4290    0.0000 H   0  0  0  0  0  0  0  0  0  0  0  0
    2.0625   -0.7145    0.0000 H   0  0  0  0  0  0  0  0  0  0  0  0
  1  2  1  0  0  0  0
  2  3  1  0  0  0  0
  3  4  1  0  0  0  0
  3  5  2  0  0  0  0
  1  6  1  0  0  0  0
  1  7  1  0  0  0  0
  1  8  1  0  0  0  0
  2  9  1  0  0  0  0
  4 10  1  0  0  0  0
  4 11  1  0  0  0  0
M  END
> <id>
1205

> <casrn>
598-50-5

> <smiles (First)>


> <Molecular weight>
74.08184051513672

> <name>
1-methylurea

> <Outcome>
0

> <Molecule (RDKit Mol) (InChI Code)>
InChI=1S/C2H6N2O/c1-4-2(3)5/h1H3,(H3,3,4,5)

> <reference>
ECHA

> <molecule_form>
A

$$$$

  Mrv1812 01171911372D          

 24 24  0  0  0  0            999 V2000
   -0.7145    3.7125    0.0000 C   0  0  0  0  0  0  0  0  0  0  0  0
   -0.0000    3.3000    0.0000 N   0  0  0  0  0  0  0  0  0  0  0  0
    0.7145    3.7125    0.0000 C   0  0  0  0  0  0  0  0  0  0  0  0
   -0.0000    2.4750    0.0000 C   0  0  0  0  0  0  0  0  0  0  0  0
   -0.7145    2.0625    0.0000 O   0  0  0  0  0  0  0  0  0  0  0  0
    0.7145    2.0625    0.0000 N   0  0  0  0  0  0  0  0  0  0  0  0
    0.7145    1.2375    0.0000 C   0  0  0  0  0  0  0  0  0  0  0  0
    1.4289    0.8250    0.0000 C   0  0  0  0  0  0  0  0  0  0  0  0
    1.4289   -0.0000    0.0000 C   0  0  0  0  0  0  0  0  0  0  0  0
    0.7145   -0.4125    0.0000 C   0  0  0  0  0  0  0  0  0  0  0  0
    0.7145   -1.2375    0.0000 Cl  0  0  0  0  0  0  0  0  0  0  0  0
   -0.0000   -0.0000    0.0000 C   0  0  0  0  0  0  0  0  0  0  0  0
   -0.7145   -0.4125    0.0000 Cl  0  0  0  0  0  0  0  0  0  0  0  0
   -0.0000    0.8250    0.0000 C   0  0  0  0  0  0  0  0  0  0  0  0
   -0.3020    4.4270    0.0000 H   0  0  0  0  0  0  0  0  0  0  0  0
   -1.4289    4.1250    0.0000 H   0  0  0  0  0  0  0  0  0  0  0  0
   -1.1270    2.9980    0.0000 H   0  0  0  0  0  0  0  0  0  0  0  0
    1.1270    2.9980    0.0000 H   0  0  0  0  0  0  0  0  0  0  0  0
    1.4289    4.1250    0.0000 H   0  0  0  0  0  0  0  0  0  0  0  0
    0.3020    4.4270    0.0000 H   0  0  0  0  0  0  0  0  0  0  0  0
    1.4289    2.4750    0.0000 H   0  0  0  0  0  0  0  0  0  0  0  0
    2.1434    1.2375    0.0000 H   0  0  0  0  0  0  0  0  0  0  0  0
    2.1434   -0.4125    0.0000 H   0  0  0  0  0  0  0  0  0  0  0  0
   -0.7145    1.2375    0.0000 H   0  0  0  0  0  0  0  0  0  0  0  0
  1  2  1  0  0  0  0
  2  3  1  0  0  0  0
  2  4  1  0  0  0  0
  4  5  2  0  0  0  0
  4  6  1  0  0  0  0
  6  7  1  0  0  0  0
  7  8  4  0  0  0  0
  8  9  4  0  0  0  0
  9 10  4  0  0  0  0
 10 11  1  0  0  0  0
 10 12  4  0  0  0  0
 12 13  1  0  0  0  0
 12 14  4  0  0  0  0
  7 14  4  0  0  0  0
  1 15  1  0  0  0  0
  1 16  1  0  0  0  0
  1 17  1  0  0  0  0
  3 18  1  0  0  0  0
  3 19  1  0  0  0  0
  3 20  1  0  0  0  0
  6 21  1  0  0  0  0
  8 22  1  0  0  0  0
  9 23  1  0  0  0  0
 14 24  1  0  0  0  0
M  END
> <id>
1090; 1089

> <casrn>
330-54-1

> <smiles (First)>


> <Molecular weight>
233.09449768066406

> <name>
1-(3,4-dichlorophenyl)-3,3-dimethylurea

> <Outcome>
0

> <Molecule (RDKit Mol) (InChI Code)>
InChI=1S/C9H10Cl2N2O/c1-13(2)9(14)12-6-3-4-7(10)8(11)5-6/h3-5H,1-2H3,(H,12,14)

> <reference>
ECHA

> <molecule_form>
A

$$$$

  Mrv1812 01171911372D          

 18 18  0  0  0  0            999 V2000
   -0.0000    2.4750    0.0000 O   0  0  0  0  0  0  0  0  0  0  0  0
    0.7145    2.0625    0.0000 C   0  0  0  0  0  0  0  0  0  0  0  0
    1.4289    2.4750    0.0000 O   0  0  0  0  0  0  0  0  0  0  0  0
    0.7145    1.2375    0.0000 C   0  0  0  0  0  0  0  0  0  0  0  0
    1.4289    0.8250    0.0000 C   0  0  0  0  0  0  0  0  0  0  0  0
    1.4289   -0.0000    0.0000 C   0  0  0  0  0  0  0  0  0  0  0  0
    0.7145   -0.4125    0.0000 C   0  0  0  0  0  0  0  0  0  0  0  0
   -0.0000   -0.0000    0.0000 C   0  0  0  0  0  0  0  0  0  0  0  0
   -0.0000    0.8250    0.0000 C   0  0  0  0  0  0  0  0  0  0  0  0
   -0.7145    1.2375    0.0000 C   0  0  0  0  0  0  0  0  0  0  0  0
   -0.7145    2.0625    0.0000 O   0  0  0  0  0  0  0  0  0  0  0  0
   -1.4289    0.8250    0.0000 O   0  0  0  0  0  0  0  0  0  0  0  0
    2.1434    2.0625    0.0000 H   0  0  0  0  0  0  0  0  0  0  0  0
    2.1434    1.2375    0.0000 H   0  0  0  0  0  0  0  0  0  0  0  0
    2.1434   -0.4125    0.0000 H   0  0  0  0  0  0  0  0  0  0  0  0
    0.7145   -1.2375    0.0000 H   0  0  0  0  0  0  0  0  0  0  0  0
   -0.7145   -0.4125    0.0000 H   0  0  0  0  0  0  0  0  0  0  0  0
   -2.1434    1.2375    0.0000 H   0  0  0  0  0  0  0  0  0  0  0  0
  1  2  2  0  0  0  0
  2  3  1  0  0  0  0
  2  4  1  0  0  0  0
  4  5  4  0  0  0  0
  5  6  4  0  0  0  0
  6  7  4  0  0  0  0
  7  8  4  0  0  0  0
  8  9  4  0  0  0  0
  4  9  4  0  0  0  0
  9 10  1  0  0  0  0
 10 11  2  0  0  0  0
 10 12  1  0  0  0  0
  3 13  1  0  0  0  0
  5 14  1  0  0  0  0
  6 15  1  0  0  0  0
  7 16  1  0  0  0  0
  8 17  1  0  0  0  0
 12 18  1  0  0  0  0
M  END
> <id>
2616

> <casrn>
88-99-3

> <smiles (First)>


> <Molecular weight>
166.13084411621094

> <name>
benzene-1,2-dicarboxylic acid

> <Outcome>
0

> <Molecule (RDKit Mol) (InChI Code)>
InChI=1S/C8H6O4/c9-7(10)5-3-1-2-4-6(5)8(11)12/h1-4H,(H,9,10)(H,11,12)

> <reference>
ECHA

> <molecule_form>
A

$$$$

  Mrv1812 01171911372D          

  5  4  0  0  0  0            999 V2000
    1.2375    0.7145    0.0000 F   0  0  0  0  0  0  0  0  0  0  0  0
    0.8250   -0.0000    0.0000 C   0  0  0  0  0  0  0  0  0  0  0  0
    1.2375   -0.7145    0.0000 F   0  0  0  0  0  0  0  0  0  0  0  0
    0.0000   -0.0000    0.0000 F   0  0  0  0  0  0  0  0  0  0  0  0
    1.6500   -0.0000    0.0000 H   0  0  0  0  0  0  0  0  0  0  0  0
  1  2  1  0  0  0  0
  2  3  1  0  0  0  0
  2  4  1  0  0  0  0
  2  5  1  0  0  0  0
M  END
> <id>
4076

> <casrn>
75-46-7

> <smiles (First)>


> <Molecular weight>
70.01384735107422

> <name>
trifluoromethane

> <Outcome>
0

> <Molecule (RDKit Mol) (InChI Code)>
InChI=1S/CHF3/c2-1(3)4/h1H

> <reference>
ECHA

> <molecule_form>
G

$$$$

  Mrv1812 01171911372D          

 13 13  0  0  0  0            999 V2000
    0.7145    2.0625    0.0000 N   0  0  0  0  0  0  0  0  0  0  0  0
    0.7145    1.2375    0.0000 C   0  0  0  0  0  0  0  0  0  0  0  0
    1.4289    0.8250    0.0000 N   0  0  0  0  0  0  0  0  0  0  0  0
    1.4289   -0.0000    0.0000 C   0  0  0  0  0  0  0  0  0  0  0  0
    2.1434   -0.4125    0.0000 O   0  0  0  0  0  0  0  0  0  0  0  0
    0.7145   -0.4125    0.0000 N   0  0  0  0  0  0  0  0  0  0  0  0
    0.0000   -0.0000    0.0000 C   0  0  0  0  0  0  0  0  0  0  0  0
    0.0000    0.8250    0.0000 C   0  0  0  0  0  0  0  0  0  0  0  0
   -0.7145    1.2375    0.0000 F   0  0  0  0  0  0  0  0  0  0  0  0
    1.4289    2.4750    0.0000 H   0  0  0  0  0  0  0  0  0  0  0  0
    0.0000    2.4750    0.0000 H   0  0  0  0  0  0  0  0  0  0  0  0
    0.7145   -1.2375    0.0000 H   0  0  0  0  0  0  0  0  0  0  0  0
   -0.7145   -0.4125    0.0000 H   0  0  0  0  0  0  0  0  0  0  0  0
  1  2  1  0  0  0  0
  2  3  2  0  0  0  0
  3  4  1  0  0  0  0
  4  5  2  0  0  0  0
  4  6  1  0  0  0  0
  6  7  1  0  0  0  0
  7  8  2  0  0  0  0
  2  8  1  0  0  0  0
  8  9  1  0  0  0  0
  1 10  1  0  0  0  0
  1 11  1  0  0  0  0
  6 12  1  0  0  0  0
  7 13  1  0  0  0  0
M  END
> <id>
1828

> <casrn>
2022-85-7

> <smiles (First)>


> <Molecular weight>
129.09246826171875

> <name>
4-amino-5-fluoro-1,2-dihydropyrimidin-2-one

> <Outcome>
0

> <Molecule (RDKit Mol) (InChI Code)>
InChI=1S/C4H4FN3O/c5-2-1-7-4(9)8-3(2)6/h1H,(H3,6,7,8,9)

> <reference>
ECHA

> <molecule_form>
A

$$$$

  Mrv1812 01171911372D          

 32 32  0  0  0  0            999 V2000
   -0.5941    3.8629    0.0000 C   0  0  0  0  0  0  0  0  0  0  0  0
    0.1204    3.4504    0.0000 O   0  0  0  0  0  0  0  0  0  0  0  0
    0.1204    2.6254    0.0000 Si  0  0  0  0  0  0  0  0  0  0  0  0
    0.8349    2.2129    0.0000 C   0  0  0  0  0  0  0  0  0  0  0  0
    0.8349    1.3879    0.0000 C   0  0  0  0  0  0  0  0  0  0  0  0
    1.5493    0.9754    0.0000 C   0  0  0  0  0  0  0  0  0  0  0  0
    1.5493    0.1504    0.0000 C   0  0  0  0  0  0  0  0  0  0  0  0
    0.8349   -0.2621    0.0000 C   0  0  0  0  0  0  0  0  0  0  0  0
    0.1204    0.1504    0.0000 C   0  0  0  0  0  0  0  0  0  0  0  0
    0.1204    0.9754    0.0000 C   0  0  0  0  0  0  0  0  0  0  0  0
   -0.5941    2.2129    0.0000 O   0  0  0  0  0  0  0  0  0  0  0  0
   -0.5941    1.3879    0.0000 C   0  0  0  0  0  0  0  0  0  0  0  0
   -0.1816    4.5773    0.0000 H   0  0  0  0  0  0  0  0  0  0  0  0
   -1.3085    4.2754    0.0000 H   0  0  0  0  0  0  0  0  0  0  0  0
   -1.0066    3.1484    0.0000 H   0  0  0  0  0  0  0  0  0  0  0  0
    0.8349    3.0379    0.0000 H   0  0  0  0  0  0  0  0  0  0  0  0
    1.6101    1.9307    0.0000 H   0  0  0  0  0  0  0  0  0  0  0  0
    1.6101    2.4950    0.0000 H   0  0  0  0  0  0  0  0  0  0  0  0
    0.1204    1.8004    0.0000 H   0  0  0  0  0  0  0  0  0  0  0  0
    2.2549    0.5478    0.0000 H   0  0  0  0  0  0  0  0  0  0  0  0
    2.2806    1.3573    0.0000 H   0  0  0  0  0  0  0  0  0  0  0  0
    1.5464   -0.6746    0.0000 H   0  0  0  0  0  0  0  0  0  0  0  0
    2.2609   -0.2672    0.0000 H   0  0  0  0  0  0  0  0  0  0  0  0
    0.1202   -0.6742    0.0000 H   0  0  0  0  0  0  0  0  0  0  0  0
    0.8339   -1.0871    0.0000 H   0  0  0  0  0  0  0  0  0  0  0  0
   -0.5940    0.5629    0.0000 H   0  0  0  0  0  0  0  0  0  0  0  0
   -0.5941   -0.2620    0.0000 H   0  0  0  0  0  0  0  0  0  0  0  0
    0.6507    0.3434    0.0000 H   0  0  0  0  0  0  0  0  0  0  0  0
    0.9329    0.8321    0.0000 H   0  0  0  0  0  0  0  0  0  0  0  0
   -1.1774    1.9712    0.0000 H   0  0  0  0  0  0  0  0  0  0  0  0
   -1.4191    1.3879    0.0000 H   0  0  0  0  0  0  0  0  0  0  0  0
   -1.1774    0.8045    0.0000 H   0  0  0  0  0  0  0  0  0  0  0  0
  1  2  1  0  0  0  0
  2  3  1  0  0  0  0
  3  4  1  0  0  0  0
  4  5  1  0  0  0  0
  5  6  1  0  0  0  0
  6  7  1  0  0  0  0
  7  8  1  0  0  0  0
  8  9  1  0  0  0  0
  9 10  1  0  0  0  0
  5 10  1  0  0  0  0
  3 11  1  0  0  0  0
 11 12  1  0  0  0  0
  1 13  1  0  0  0  0
  1 14  1  0  0  0  0
  1 15  1  0  0  0  0
  3 16  1  0  0  0  0
  4 17  1  0  0  0  0
  4 18  1  0  0  0  0
  5 19  1  0  0  0  0
  6 20  1  0  0  0  0
  6 21  1  0  0  0  0
  7 22  1  0  0  0  0
  7 23  1  0  0  0  0
  8 24  1  0  0  0  0
  8 25  1  0  0  0  0
  9 26  1  0  0  0  0
  9 27  1  0  0  0  0
 10 28  1  0  0  0  0
 10 29  1  0  0  0  0
 12 30  1  0  0  0  0
 12 31  1  0  0  0  0
 12 32  1  0  0  0  0
M  END
> <id>
293; 261; 390

> <casrn>
17865-32-6

> <smiles (First)>


> <Molecular weight>
188.3394012451172

> <name>
-

> <Outcome>
0

> <Molecule (RDKit Mol) (InChI Code)>
InChI=1S/C9H20O2Si/c1-10-12(11-2)8-9-6-4-3-5-7-9/h9,12H,3-8H2,1-2H3

> <reference>
ECHA

> <molecule_form>
A

$$$$

  Mrv1812 01171911372D          

 23 22  0  0  0  0            999 V2000
    2.9980    2.5575    0.0000 C   0  0  0  0  0  0  0  0  0  0  0  0
    3.7125    2.1450    0.0000 O   0  0  0  0  0  0  0  0  0  0  0  0
    4.4270    2.5575    0.0000 C   0  0  0  0  0  0  0  0  0  0  0  0
    4.4270    3.3825    0.0000 O   0  0  0  0  0  0  0  0  0  0  0  0
    5.1414    2.1450    0.0000 C   0  0  0  0  0  0  0  0  0  0  0  0
    5.8559    2.5575    0.0000 C   0  0  0  0  0  0  0  0  0  0  0  0
    6.5704    2.1450    0.0000 C   0  0  0  0  0  0  0  0  0  0  0  0
    7.2848    2.5575    0.0000 C   0  0  0  0  0  0  0  0  0  0  0  0
    7.2848    3.3825    0.0000 O   0  0  0  0  0  0  0  0  0  0  0  0
    7.9993    2.1450    0.0000 O   0  0  0  0  0  0  0  0  0  0  0  0
    8.7138    2.5575    0.0000 C   0  0  0  0  0  0  0  0  0  0  0  0
    3.4105    3.2719    0.0000 H   0  0  0  0  0  0  0  0  0  0  0  0
    2.2835    2.9700    0.0000 H   0  0  0  0  0  0  0  0  0  0  0  0
    2.5855    1.8430    0.0000 H   0  0  0  0  0  0  0  0  0  0  0  0
    4.7712    1.4077    0.0000 H   0  0  0  0  0  0  0  0  0  0  0  0
    5.5117    1.4077    0.0000 H   0  0  0  0  0  0  0  0  0  0  0  0
    6.2262    3.2947    0.0000 H   0  0  0  0  0  0  0  0  0  0  0  0
    5.4856    3.2947    0.0000 H   0  0  0  0  0  0  0  0  0  0  0  0
    6.2001    1.4077    0.0000 H   0  0  0  0  0  0  0  0  0  0  0  0
    6.9406    1.4077    0.0000 H   0  0  0  0  0  0  0  0  0  0  0  0
    9.1263    1.8430    0.0000 H   0  0  0  0  0  0  0  0  0  0  0  0
    9.4283    2.9700    0.0000 H   0  0  0  0  0  0  0  0  0  0  0  0
    8.3013    3.2719    0.0000 H   0  0  0  0  0  0  0  0  0  0  0  0
  1  2  1  0  0  0  0
  2  3  1  0  0  0  0
  3  4  2  0  0  0  0
  3  5  1  0  0  0  0
  5  6  1  0  0  0  0
  6  7  1  0  0  0  0
  7  8  1  0  0  0  0
  8  9  2  0  0  0  0
  8 10  1  0  0  0  0
 10 11  1  0  0  0  0
  1 12  1  0  0  0  0
  1 13  1  0  0  0  0
  1 14  1  0  0  0  0
  5 15  1  0  0  0  0
  5 16  1  0  0  0  0
  6 17  1  0  0  0  0
  6 18  1  0  0  0  0
  7 19  1  0  0  0  0
  7 20  1  0  0  0  0
 11 21  1  0  0  0  0
 11 22  1  0  0  0  0
 11 23  1  0  0  0  0
M  END
> <id>
1074

> <casrn>
1119-40-0

> <smiles (First)>


> <Molecular weight>
160.16778564453125

> <name>
1,5-dimethyl pentanedioate

> <Outcome>
0

> <Molecule (RDKit Mol) (InChI Code)>
InChI=1S/C7H12O4/c1-10-6(8)4-3-5-7(9)11-2/h3-5H2,1-2H3

> <reference>
ECHA

> <molecule_form>
A

$$$$

  Mrv1812 01171911372D          

 12 11  0  0  0  0            999 V2000
    1.2375    2.1434    0.0000 C   0  0  0  0  0  0  0  0  0  0  0  0
    0.8250    1.4289    0.0000 C   0  0  0  0  0  0  0  0  0  0  0  0
    1.2375    0.7145    0.0000 O   0  0  0  0  0  0  0  0  0  0  0  0
    0.8250   -0.0000    0.0000 C   0  0  0  0  0  0  0  0  0  0  0  0
    1.2375   -0.7145    0.0000 C   0  0  0  0  0  0  0  0  0  0  0  0
   -0.0000   -0.0000    0.0000 O   0  0  0  0  0  0  0  0  0  0  0  0
    2.0625    2.1434    0.0000 H   0  0  0  0  0  0  0  0  0  0  0  0
    0.8250    2.8579    0.0000 H   0  0  0  0  0  0  0  0  0  0  0  0
   -0.0000    1.4289    0.0000 H   0  0  0  0  0  0  0  0  0  0  0  0
    0.5230   -1.1270    0.0000 H   0  0  0  0  0  0  0  0  0  0  0  0
    1.6500   -1.4290    0.0000 H   0  0  0  0  0  0  0  0  0  0  0  0
    1.9520   -0.3020    0.0000 H   0  0  0  0  0  0  0  0  0  0  0  0
  1  2  2  0  0  0  0
  2  3  1  0  0  0  0
  3  4  1  0  0  0  0
  4  5  1  0  0  0  0
  4  6  2  0  0  0  0
  1  7  1  0  0  0  0
  1  8  1  0  0  0  0
  2  9  1  0  0  0  0
  5 10  1  0  0  0  0
  5 11  1  0  0  0  0
  5 12  1  0  0  0  0
M  END
> <id>
3136

> <casrn>
108-05-4

> <smiles (First)>


> <Molecular weight>
86.08924102783203

> <name>
ethenyl acetate

> <Outcome>
1

> <Molecule (RDKit Mol) (InChI Code)>
InChI=1S/C4H6O2/c1-3-6-4(2)5/h3H,1H2,2H3

> <reference>
ECHA

> <molecule_form>
V

$$$$

  Mrv1812 01171911372D          

 10  9  0  0  0  0            999 V2000
    2.0607   -0.7175    0.0000 C   0  0  0  0  0  0  0  0  0  0  0  0
    1.2357   -0.7175    0.0000 C   0  0  0  0  0  0  0  0  0  0  0  0
    0.8232   -0.0030    0.0000 C   0  0  0  0  0  0  0  0  0  0  0  0
   -0.0018   -0.0030    0.0000 O   0  0  0  0  0  0  0  0  0  0  0  0
    2.4732   -1.4320    0.0000 H   0  0  0  0  0  0  0  0  0  0  0  0
    2.4732   -0.0030    0.0000 H   0  0  0  0  0  0  0  0  0  0  0  0
    0.8232   -1.4320    0.0000 H   0  0  0  0  0  0  0  0  0  0  0  0
    1.5125    0.4503    0.0000 H   0  0  0  0  0  0  0  0  0  0  0  0
    0.8712    0.8206    0.0000 H   0  0  0  0  0  0  0  0  0  0  0  0
   -0.4143    0.7114    0.0000 H   0  0  0  0  0  0  0  0  0  0  0  0
  1  2  2  0  0  0  0
  2  3  1  0  0  0  0
  3  4  1  0  0  0  0
  1  5  1  0  0  0  0
  1  6  1  0  0  0  0
  2  7  1  0  0  0  0
  3  8  1  0  0  0  0
  3  9  1  0  0  0  0
  4 10  1  0  0  0  0
M  END
> <id>
3769

> <casrn>
107-18-6

> <smiles (First)>


> <Molecular weight>
58.079139709472656

> <name>
prop-2-en-1-ol

> <Outcome>
1

> <Molecule (RDKit Mol) (InChI Code)>
InChI=1S/C3H6O/c1-2-3-4/h2,4H,1,3H2

> <reference>
ECHA

> <molecule_form>
V

$$$$

  Mrv1812 01171911372D          

 11 10  0  0  0  0            999 V2000
    1.5395   -1.2375    0.0000 F   0  0  0  0  0  0  0  0  0  0  0  0
    0.8250   -0.8250    0.0000 C   0  0  0  0  0  0  0  0  0  0  0  0
    0.1105   -1.2375    0.0000 C   0  0  0  0  0  0  0  0  0  0  0  0
   -0.6039   -1.6500    0.0000 F   0  0  0  0  0  0  0  0  0  0  0  0
    0.5230   -1.9520    0.0000 F   0  0  0  0  0  0  0  0  0  0  0  0
   -0.3020   -0.5230    0.0000 F   0  0  0  0  0  0  0  0  0  0  0  0
    0.8250   -0.0000    0.0000 C   0  0  0  0  0  0  0  0  0  0  0  0
    0.8250    0.8250    0.0000 F   0  0  0  0  0  0  0  0  0  0  0  0
    1.6500   -0.0000    0.0000 F   0  0  0  0  0  0  0  0  0  0  0  0
   -0.0000   -0.0000    0.0000 F   0  0  0  0  0  0  0  0  0  0  0  0
    0.8250   -1.6500    0.0000 H   0  0  0  0  0  0  0  0  0  0  0  0
  1  2  1  0  0  0  0
  2  3  1  0  0  0  0
  3  4  1  0  0  0  0
  3  5  1  0  0  0  0
  3  6  1  0  0  0  0
  2  7  1  0  0  0  0
  7  8  1  0  0  0  0
  7  9  1  0  0  0  0
  7 10  1  0  0  0  0
  2 11  1  0  0  0  0
M  END
> <id>
877; 878

> <casrn>
431-89-0

> <smiles (First)>


> <Molecular weight>
170.02886962890625

> <name>
1,1,1,2,3,3,3-heptafluoropropane

> <Outcome>
0

> <Molecule (RDKit Mol) (InChI Code)>
InChI=1S/C3HF7/c4-1(2(5,6)7)3(8,9)10/h1H

> <reference>
ECHA

> <molecule_form>
G

$$$$

  Mrv1812 01171911372D          

 31 30  0  0  0  0            999 V2000
    1.3336   -4.7227    0.0000 C   0  0  0  0  0  0  0  0  0  0  0  0
    1.3336   -3.8977    0.0000 C   0  0  0  0  0  0  0  0  0  0  0  0
    0.6192   -3.4852    0.0000 C   0  0  0  0  0  0  0  0  0  0  0  0
    0.6192   -2.6602    0.0000 N   0  0  0  0  0  0  0  0  0  0  0  0
   -0.0953   -2.2477    0.0000 C   0  0  0  0  0  0  0  0  0  0  0  0
   -0.0953   -1.4227    0.0000 C   0  0  0  0  0  0  0  0  0  0  0  0
   -0.8098   -1.0102    0.0000 C   0  0  0  0  0  0  0  0  0  0  0  0
    1.3336   -2.2477    0.0000 C   0  0  0  0  0  0  0  0  0  0  0  0
    1.3336   -1.4227    0.0000 C   0  0  0  0  0  0  0  0  0  0  0  0
    2.0481   -1.0102    0.0000 C   0  0  0  0  0  0  0  0  0  0  0  0
    0.5086   -4.7227    0.0000 H   0  0  0  0  0  0  0  0  0  0  0  0
    1.3336   -5.5477    0.0000 H   0  0  0  0  0  0  0  0  0  0  0  0
    2.1586   -4.7227    0.0000 H   0  0  0  0  0  0  0  0  0  0  0  0
    2.1572   -3.8497    0.0000 H   0  0  0  0  0  0  0  0  0  0  0  0
    1.7870   -3.2084    0.0000 H   0  0  0  0  0  0  0  0  0  0  0  0
   -0.2044   -3.5332    0.0000 H   0  0  0  0  0  0  0  0  0  0  0  0
    0.1658   -4.1745    0.0000 H   0  0  0  0  0  0  0  0  0  0  0  0
   -0.9189   -2.2957    0.0000 H   0  0  0  0  0  0  0  0  0  0  0  0
   -0.5487   -2.9370    0.0000 H   0  0  0  0  0  0  0  0  0  0  0  0
    0.7283   -1.3747    0.0000 H   0  0  0  0  0  0  0  0  0  0  0  0
    0.3580   -0.7334    0.0000 H   0  0  0  0  0  0  0  0  0  0  0  0
   -0.3973   -0.2957    0.0000 H   0  0  0  0  0  0  0  0  0  0  0  0
   -1.5243   -0.5977    0.0000 H   0  0  0  0  0  0  0  0  0  0  0  0
   -1.2223   -1.7247    0.0000 H   0  0  0  0  0  0  0  0  0  0  0  0
    1.7870   -2.9370    0.0000 H   0  0  0  0  0  0  0  0  0  0  0  0
    2.1572   -2.2957    0.0000 H   0  0  0  0  0  0  0  0  0  0  0  0
    1.1518   -0.6180    0.0000 H   0  0  0  0  0  0  0  0  0  0  0  0
    2.0481   -1.8352    0.0000 H   0  0  0  0  0  0  0  0  0  0  0  0
    2.8450   -1.2237    0.0000 H   0  0  0  0  0  0  0  0  0  0  0  0
    2.4606   -0.2957    0.0000 H   0  0  0  0  0  0  0  0  0  0  0  0
    1.4647   -0.4268    0.0000 H   0  0  0  0  0  0  0  0  0  0  0  0
  1  2  1  0  0  0  0
  2  3  1  0  0  0  0
  3  4  1  0  0  0  0
  4  5  1  0  0  0  0
  5  6  1  0  0  0  0
  6  7  1  0  0  0  0
  4  8  1  0  0  0  0
  8  9  1  0  0  0  0
  9 10  1  0  0  0  0
  1 11  1  0  0  0  0
  1 12  1  0  0  0  0
  1 13  1  0  0  0  0
  2 14  1  0  0  0  0
  2 15  1  0  0  0  0
  3 16  1  0  0  0  0
  3 17  1  0  0  0  0
  5 18  1  0  0  0  0
  5 19  1  0  0  0  0
  6 20  1  0  0  0  0
  6 21  1  0  0  0  0
  7 22  1  0  0  0  0
  7 23  1  0  0  0  0
  7 24  1  0  0  0  0
  8 25  1  0  0  0  0
  8 26  1  0  0  0  0
  9 27  1  0  0  0  0
  9 28  1  0  0  0  0
 10 29  1  0  0  0  0
 10 30  1  0  0  0  0
 10 31  1  0  0  0  0
M  END
> <id>
2385

> <casrn>
102-69-2

> <smiles (First)>


> <Molecular weight>
143.26974487304688

> <name>
N,N-dipropylpropan-1-amine

> <Outcome>
1

> <Molecule (RDKit Mol) (InChI Code)>
InChI=1S/C9H21N/c1-4-7-10(8-5-2)9-6-3/h4-9H2,1-3H3

> <reference>
ECHA

> <molecule_form>
V

$$$$

  Mrv1812 01171911372D          

 85 90  0  0  0  0            999 V2000
   -6.4328   -5.3722    0.0000 N   0  0  0  0  0  0  0  0  0  0  0  0
   -5.7184   -4.9597    0.0000 C   0  0  0  0  0  0  0  0  0  0  0  0
   -5.7184   -4.1347    0.0000 C   0  0  0  0  0  0  0  0  0  0  0  0
   -5.0039   -3.7222    0.0000 C   0  0  0  0  0  0  0  0  0  0  0  0
   -4.2894   -4.1347    0.0000 C   0  0  0  0  0  0  0  0  0  0  0  0
   -3.5750   -3.7222    0.0000 N   0  0  0  0  0  0  0  0  0  0  0  0
   -3.5750   -2.8972    0.0000 N   0  0  0  0  0  0  0  0  0  0  0  0
   -2.8605   -2.4847    0.0000 C   0  0  0  0  0  0  0  0  0  0  0  0
   -2.8605   -1.6597    0.0000 C   0  0  0  0  0  0  0  0  0  0  0  0
   -2.1460   -1.2472    0.0000 C   0  0  0  0  0  0  0  0  0  0  0  0
   -1.4315   -1.6597    0.0000 C   0  0  0  0  0  0  0  0  0  0  0  0
   -0.7171   -1.2472    0.0000 N   0  0  0  0  0  0  0  0  0  0  0  0
   -0.0026   -1.6597    0.0000 N   0  0  0  0  0  0  0  0  0  0  0  0
    0.7119   -1.2472    0.0000 C   0  0  0  0  0  0  0  0  0  0  0  0
    0.7119   -0.4222    0.0000 C   0  0  0  0  0  0  0  0  0  0  0  0
   -0.0026   -0.0097    0.0000 S   0  0  0  0  0  0  0  0  0  0  0  0
   -0.7171    0.4028    0.0000 O   0  0  0  0  0  0  0  0  0  0  0  0
    0.4099    0.7047    0.0000 O   0  0  0  0  0  0  0  0  0  0  0  0
   -0.4151   -0.7242    0.0000 O   0  0  0  0  0  0  0  0  0  0  0  0
    1.4263   -0.0097    0.0000 C   0  0  0  0  0  0  0  0  0  0  0  0
    2.1408   -0.4222    0.0000 C   0  0  0  0  0  0  0  0  0  0  0  0
    2.8553   -0.0097    0.0000 C   0  0  0  0  0  0  0  0  0  0  0  0
    3.5697   -0.4222    0.0000 C   0  0  0  0  0  0  0  0  0  0  0  0
    4.2842   -0.0097    0.0000 S   0  0  0  0  0  0  0  0  0  0  0  0
    4.9987    0.4028    0.0000 O   0  0  0  0  0  0  0  0  0  0  0  0
    4.6967   -0.7242    0.0000 O   0  0  0  0  0  0  0  0  0  0  0  0
    3.8717    0.7047    0.0000 O   0  0  0  0  0  0  0  0  0  0  0  0
    3.5697   -1.2472    0.0000 C   0  0  0  0  0  0  0  0  0  0  0  0
    4.2842   -1.6597    0.0000 N   0  0  0  0  0  0  0  0  0  0  0  0
    4.9987   -1.2472    0.0000 N   0  0  0  0  0  0  0  0  0  0  0  0
    5.7132   -1.6597    0.0000 C   0  0  0  0  0  0  0  0  0  0  0  0
    6.4276   -1.2472    0.0000 C   0  0  0  0  0  0  0  0  0  0  0  0
    7.1421   -1.6597    0.0000 C   0  0  0  0  0  0  0  0  0  0  0  0
    7.1421   -2.4847    0.0000 C   0  0  0  0  0  0  0  0  0  0  0  0
    7.8566   -2.8972    0.0000 N   0  0  0  0  0  0  0  0  0  0  0  0
    8.5710   -2.4847    0.0000 N   0  0  0  0  0  0  0  0  0  0  0  0
    9.2855   -2.8972    0.0000 C   0  0  0  0  0  0  0  0  0  0  0  0
   10.0000   -2.4847    0.0000 C   0  0  0  0  0  0  0  0  0  0  0  0
   10.7145   -2.8972    0.0000 C   0  0  0  0  0  0  0  0  0  0  0  0
   10.7145   -3.7222    0.0000 C   0  0  0  0  0  0  0  0  0  0  0  0
   11.4289   -4.1347    0.0000 N   0  0  0  0  0  0  0  0  0  0  0  0
   10.0000   -4.1347    0.0000 C   0  0  0  0  0  0  0  0  0  0  0  0
    9.2855   -3.7222    0.0000 C   0  0  0  0  0  0  0  0  0  0  0  0
    8.5710   -4.1347    0.0000 N   0  0  0  0  0  0  0  0  0  0  0  0
    6.4276   -2.8972    0.0000 C   0  0  0  0  0  0  0  0  0  0  0  0
    5.7132   -2.4847    0.0000 C   0  0  0  0  0  0  0  0  0  0  0  0
    2.8553   -1.6597    0.0000 C   0  0  0  0  0  0  0  0  0  0  0  0
    2.8553   -2.4847    0.0000 N   0  0  0  0  0  0  0  0  0  0  0  0
    2.1408   -1.2472    0.0000 C   0  0  0  0  0  0  0  0  0  0  0  0
    1.4263   -1.6597    0.0000 C   0  0  0  0  0  0  0  0  0  0  0  0
    1.4263   -2.4847    0.0000 O   0  0  0  0  0  0  0  0  0  0  0  0
   -1.4315   -2.4847    0.0000 C   0  0  0  0  0  0  0  0  0  0  0  0
   -2.1460   -2.8972    0.0000 C   0  0  0  0  0  0  0  0  0  0  0  0
   -4.2894   -4.9597    0.0000 C   0  0  0  0  0  0  0  0  0  0  0  0
   -3.5750   -5.3722    0.0000 N   0  0  0  0  0  0  0  0  0  0  0  0
   -5.0039   -5.3722    0.0000 C   0  0  0  0  0  0  0  0  0  0  0  0
   -7.1473   -4.9597    0.0000 H   0  0  0  0  0  0  0  0  0  0  0  0
   -6.4328   -6.1972    0.0000 H   0  0  0  0  0  0  0  0  0  0  0  0
   -6.4328   -3.7222    0.0000 H   0  0  0  0  0  0  0  0  0  0  0  0
   -5.0039   -2.8972    0.0000 H   0  0  0  0  0  0  0  0  0  0  0  0
   -3.5750   -1.2472    0.0000 H   0  0  0  0  0  0  0  0  0  0  0  0
   -2.1460   -0.4222    0.0000 H   0  0  0  0  0  0  0  0  0  0  0  0
   -1.1296   -0.3117    0.0000 H   0  0  0  0  0  0  0  0  0  0  0  0
    1.4263    0.8153    0.0000 H   0  0  0  0  0  0  0  0  0  0  0  0
    2.8553    0.8153    0.0000 H   0  0  0  0  0  0  0  0  0  0  0  0
    4.2842    1.4192    0.0000 H   0  0  0  0  0  0  0  0  0  0  0  0
    6.4276   -0.4222    0.0000 H   0  0  0  0  0  0  0  0  0  0  0  0
    7.8566   -1.2472    0.0000 H   0  0  0  0  0  0  0  0  0  0  0  0
   10.0000   -1.6597    0.0000 H   0  0  0  0  0  0  0  0  0  0  0  0
   11.4289   -2.4847    0.0000 H   0  0  0  0  0  0  0  0  0  0  0  0
   11.4289   -4.9597    0.0000 H   0  0  0  0  0  0  0  0  0  0  0  0
   12.1434   -3.7222    0.0000 H   0  0  0  0  0  0  0  0  0  0  0  0
   10.0000   -4.9597    0.0000 H   0  0  0  0  0  0  0  0  0  0  0  0
    7.8566   -3.7222    0.0000 H   0  0  0  0  0  0  0  0  0  0  0  0
    8.5710   -4.9597    0.0000 H   0  0  0  0  0  0  0  0  0  0  0  0
    6.4276   -3.7222    0.0000 H   0  0  0  0  0  0  0  0  0  0  0  0
    4.9987   -2.8972    0.0000 H   0  0  0  0  0  0  0  0  0  0  0  0
    2.1408   -2.8972    0.0000 H   0  0  0  0  0  0  0  0  0  0  0  0
    3.5697   -2.8972    0.0000 H   0  0  0  0  0  0  0  0  0  0  0  0
    0.7119   -2.8972    0.0000 H   0  0  0  0  0  0  0  0  0  0  0  0
   -0.7171   -2.8972    0.0000 H   0  0  0  0  0  0  0  0  0  0  0  0
   -2.1460   -3.7222    0.0000 H   0  0  0  0  0  0  0  0  0  0  0  0
   -3.5750   -6.1972    0.0000 H   0  0  0  0  0  0  0  0  0  0  0  0
   -2.8605   -4.9597    0.0000 H   0  0  0  0  0  0  0  0  0  0  0  0
   -5.0039   -6.1972    0.0000 H   0  0  0  0  0  0  0  0  0  0  0  0
  1  2  1  0  0  0  0
  2  3  4  0  0  0  0
  3  4  4  0  0  0  0
  4  5  4  0  0  0  0
  6  5  1  4  0  0  0
  6  7  2  0  0  0  0
  7  8  1  0  0  0  0
  8  9  4  0  0  0  0
  9 10  4  0  0  0  0
 10 11  4  0  0  0  0
 12 11  1  4  0  0  0
 12 13  2  0  0  0  0
 13 14  1  0  0  0  0
 14 15  4  0  0  0  0
 15 16  1  0  0  0  0
 16 17  2  0  0  0  0
 16 18  2  0  0  0  0
 16 19  1  0  0  0  0
 15 20  4  0  0  0  0
 20 21  4  0  0  0  0
 21 22  4  0  0  0  0
 22 23  4  0  0  0  0
 23 24  1  0  0  0  0
 24 25  2  0  0  0  0
 24 26  2  0  0  0  0
 24 27  1  0  0  0  0
 23 28  4  0  0  0  0
 29 28  1  4  0  0  0
 29 30  2  0  0  0  0
 30 31  1  0  0  0  0
 31 32  4  0  0  0  0
 32 33  4  0  0  0  0
 33 34  4  0  0  0  0
 35 34  1  4  0  0  0
 35 36  2  0  0  0  0
 36 37  1  0  0  0  0
 37 38  4  0  0  0  0
 38 39  4  0  0  0  0
 39 40  4  0  0  0  0
 40 41  1  0  0  0  0
 40 42  4  0  0  0  0
 42 43  4  0  0  0  0
 37 43  4  0  0  0  0
 43 44  1  0  0  0  0
 34 45  4  0  0  0  0
 45 46  4  0  0  0  0
 31 46  4  0  0  0  0
 28 47  4  0  0  0  0
 47 48  1  0  0  0  0
 47 49  4  0  0  0  0
 21 49  4  0  0  0  0
 49 50  4  0  0  0  0
 14 50  4  0  0  0  0
 50 51  1  0  0  0  0
 11 52  4  0  0  0  0
 52 53  4  0  0  0  0
  8 53  4  0  0  0  0
  5 54  4  0  0  0  0
 54 55  1  0  0  0  0
 54 56  4  0  0  0  0
  2 56  4  0  0  0  0
  1 57  1  0  0  0  0
  1 58  1  0  0  0  0
  3 59  1  0  0  0  0
  4 60  1  0  0  0  0
  9 61  1  0  0  0  0
 10 62  1  0  0  0  0
 19 63  1  0  0  0  0
 20 64  1  0  0  0  0
 22 65  1  0  0  0  0
 27 66  1  0  0  0  0
 32 67  1  0  0  0  0
 33 68  1  0  0  0  0
 38 69  1  0  0  0  0
 39 70  1  0  0  0  0
 41 71  1  0  0  0  0
 41 72  1  0  0  0  0
 42 73  1  0  0  0  0
 44 74  1  0  0  0  0
 44 75  1  0  0  0  0
 45 76  1  0  0  0  0
 46 77  1  0  0  0  0
 48 78  1  0  0  0  0
 48 79  1  0  0  0  0
 51 80  1  0  0  0  0
 52 81  1  0  0  0  0
 53 82  1  0  0  0  0
 55 83  1  0  0  0  0
 55 84  1  0  0  0  0
 56 85  1  0  0  0  0
M  END
> <id>
3034

> <casrn>
6428-31-5

> <smiles (First)>


> <Molecular weight>
793.7910766601562

> <name>
disodium 4-amino-3,6-bis[(E)-2-{4-[(E)-2-(2,4-diaminophenyl)diazen-1-yl]phenyl}diazen-1-yl]-5-hydroxynaphthalene-2,7-disulfonate

> <Outcome>
0

> <Molecule (RDKit Mol) (InChI Code)>
InChI=1S/C34H29N13O7S2/c35-18-1-11-26(24(37)15-18)44-40-20-3-7-22(8-4-20)42-46-32-28(55(49,50)51)13-17-14-29(56(52,53)54)33(34(48)30(17)31(32)39)47-43-23-9-5-21(6-10-23)41-45-27-12-2-19(36)16-25(27)38/h1-16,48H,35-39H2,(H,49,50,51)(H,52,53,54)

> <reference>
ECHA

> <molecule_form>
A

$$$$

  Mrv1812 01171911372D          

 13 13  0  0  0  0            999 V2000
    0.7145    2.8875    0.0000 N   0  0  0  0  0  0  0  0  0  0  0  0
    0.7145    2.0625    0.0000 C   0  0  0  0  0  0  0  0  0  0  0  0
    0.7145    1.2375    0.0000 C   0  0  0  0  0  0  0  0  0  0  0  0
    1.4289    0.8250    0.0000 C   0  0  0  0  0  0  0  0  0  0  0  0
    2.1434    1.2375    0.0000 Cl  0  0  0  0  0  0  0  0  0  0  0  0
    1.4289    0.0000    0.0000 C   0  0  0  0  0  0  0  0  0  0  0  0
    0.7145   -0.4125    0.0000 C   0  0  0  0  0  0  0  0  0  0  0  0
    0.0000    0.0000    0.0000 C   0  0  0  0  0  0  0  0  0  0  0  0
    0.0000    0.8250    0.0000 C   0  0  0  0  0  0  0  0  0  0  0  0
   -0.7145    1.2375    0.0000 Cl  0  0  0  0  0  0  0  0  0  0  0  0
    2.1434   -0.4125    0.0000 H   0  0  0  0  0  0  0  0  0  0  0  0
    0.7145   -1.2375    0.0000 H   0  0  0  0  0  0  0  0  0  0  0  0
   -0.7145   -0.4125    0.0000 H   0  0  0  0  0  0  0  0  0  0  0  0
  1  2  3  0  0  0  0
  2  3  1  0  0  0  0
  3  4  4  0  0  0  0
  4  5  1  0  0  0  0
  4  6  4  0  0  0  0
  6  7  4  0  0  0  0
  7  8  4  0  0  0  0
  8  9  4  0  0  0  0
  3  9  4  0  0  0  0
  9 10  1  0  0  0  0
  6 11  1  0  0  0  0
  7 12  1  0  0  0  0
  8 13  1  0  0  0  0
M  END
> <id>
1309

> <casrn>
1194-65-6

> <smiles (First)>


> <Molecular weight>
172.01141357421875

> <name>
2,6-dichlorobenzonitrile

> <Outcome>
0

> <Molecule (RDKit Mol) (InChI Code)>
InChI=1S/C7H3Cl2N/c8-6-2-1-3-7(9)5(6)4-10/h1-3H

> <reference>
ECHA

> <molecule_form>
A

$$$$

  Mrv1812 01171911372D          

 16 16  0  0  0  0            999 V2000
    0.6078    2.0081    0.0000 O   0  0  0  0  0  0  0  0  0  0  0  0
    0.6078    1.1831    0.0000 C   0  0  0  0  0  0  0  0  0  0  0  0
    1.3223    0.7706    0.0000 C   0  0  0  0  0  0  0  0  0  0  0  0
    1.3223   -0.0544    0.0000 S   0  0  0  0  0  0  0  0  0  0  0  0
    0.6078   -0.4669    0.0000 C   0  0  0  0  0  0  0  0  0  0  0  0
    0.6078   -1.2919    0.0000 O   0  0  0  0  0  0  0  0  0  0  0  0
   -0.1067   -0.0544    0.0000 C   0  0  0  0  0  0  0  0  0  0  0  0
   -0.1067    0.7706    0.0000 S   0  0  0  0  0  0  0  0  0  0  0  0
    1.3223    2.4206    0.0000 H   0  0  0  0  0  0  0  0  0  0  0  0
   -0.1067    1.5956    0.0000 H   0  0  0  0  0  0  0  0  0  0  0  0
    2.1459    0.8186    0.0000 H   0  0  0  0  0  0  0  0  0  0  0  0
    1.7756    1.4599    0.0000 H   0  0  0  0  0  0  0  0  0  0  0  0
   -0.1067   -0.8794    0.0000 H   0  0  0  0  0  0  0  0  0  0  0  0
    1.0203   -2.0064    0.0000 H   0  0  0  0  0  0  0  0  0  0  0  0
   -0.8819    0.2278    0.0000 H   0  0  0  0  0  0  0  0  0  0  0  0
   -0.8819   -0.3366    0.0000 H   0  0  0  0  0  0  0  0  0  0  0  0
  1  2  1  0  0  0  0
  2  3  1  0  0  0  0
  3  4  1  0  0  0  0
  4  5  1  0  0  0  0
  5  6  1  0  0  0  0
  5  7  1  0  0  0  0
  7  8  1  0  0  0  0
  2  8  1  0  0  0  0
  1  9  1  0  0  0  0
  2 10  1  0  0  0  0
  3 11  1  0  0  0  0
  3 12  1  0  0  0  0
  5 13  1  0  0  0  0
  6 14  1  0  0  0  0
  7 15  1  0  0  0  0
  7 16  1  0  0  0  0
M  END
> <id>
1062

> <casrn>
40018-26-6

> <smiles (First)>


> <Molecular weight>
152.23512268066406

> <name>
1,4-dithiane-2,5-diol

> <Outcome>
1

> <Molecule (RDKit Mol) (InChI Code)>
InChI=1S/C4H8O2S2/c5-3-1-7-4(6)2-8-3/h3-6H,1-2H2

> <reference>
ECHA

> <molecule_form>
A

$$$$

  Mrv1812 01171911372D          

 22 21  0  0  0  0            999 V2000
    3.3903    0.3007    0.0000 C   0  0  0  0  0  0  0  0  0  0  0  0
    2.6758    0.7132    0.0000 C   0  0  0  0  0  0  0  0  0  0  0  0
    1.9613    0.3007    0.0000 C   0  0  0  0  0  0  0  0  0  0  0  0
    1.2468    0.7132    0.0000 P   0  0  0  0  0  0  0  0  0  0  0  0
    1.6593    1.4276    0.0000 O   0  0  0  0  0  0  0  0  0  0  0  0
    0.5324    1.1257    0.0000 O   0  0  0  0  0  0  0  0  0  0  0  0
   -0.1821    0.7132    0.0000 C   0  0  0  0  0  0  0  0  0  0  0  0
    0.8343   -0.0013    0.0000 O   0  0  0  0  0  0  0  0  0  0  0  0
    0.0093   -0.0013    0.0000 C   0  0  0  0  0  0  0  0  0  0  0  0
    2.9778   -0.4138    0.0000 H   0  0  0  0  0  0  0  0  0  0  0  0
    4.1047   -0.1118    0.0000 H   0  0  0  0  0  0  0  0  0  0  0  0
    3.8028    1.0151    0.0000 H   0  0  0  0  0  0  0  0  0  0  0  0
    3.0460    1.4504    0.0000 H   0  0  0  0  0  0  0  0  0  0  0  0
    2.3055    1.4504    0.0000 H   0  0  0  0  0  0  0  0  0  0  0  0
    1.5911   -0.4366    0.0000 H   0  0  0  0  0  0  0  0  0  0  0  0
    2.3316   -0.4366    0.0000 H   0  0  0  0  0  0  0  0  0  0  0  0
   -0.2361    1.5364    0.0000 H   0  0  0  0  0  0  0  0  0  0  0  0
   -0.9443    1.0289    0.0000 H   0  0  0  0  0  0  0  0  0  0  0  0
   -0.8024    0.1692    0.0000 H   0  0  0  0  0  0  0  0  0  0  0  0
   -0.3684   -0.7347    0.0000 H   0  0  0  0  0  0  0  0  0  0  0  0
    0.2282   -0.7967    0.0000 H   0  0  0  0  0  0  0  0  0  0  0  0
    0.5116    0.6532    0.0000 H   0  0  0  0  0  0  0  0  0  0  0  0
  1  2  1  0  0  0  0
  2  3  1  0  0  0  0
  3  4  1  0  0  0  0
  4  5  2  0  0  0  0
  4  6  1  0  0  0  0
  6  7  1  0  0  0  0
  4  8  1  0  0  0  0
  8  9  1  0  0  0  0
  1 10  1  0  0  0  0
  1 11  1  0  0  0  0
  1 12  1  0  0  0  0
  2 13  1  0  0  0  0
  2 14  1  0  0  0  0
  3 15  1  0  0  0  0
  3 16  1  0  0  0  0
  7 17  1  0  0  0  0
  7 18  1  0  0  0  0
  7 19  1  0  0  0  0
  9 20  1  0  0  0  0
  9 21  1  0  0  0  0
  9 22  1  0  0  0  0
M  END
> <id>
3002

> <casrn>
18755-43-6

> <smiles (First)>


> <Molecular weight>
152.12867736816406

> <name>
dimethyl propylphosphonate

> <Outcome>
0

> <Molecule (RDKit Mol) (InChI Code)>
InChI=1S/C5H13O3P/c1-4-5-9(6,7-2)8-3/h4-5H2,1-3H3

> <reference>
ECHA

> <molecule_form>
A

$$$$

  Mrv1812 01171911372D          

 32 31  0  0  0  0            999 V2000
    2.9394    2.5581    0.0000 C   0  0  0  0  0  0  0  0  0  0  0  0
    3.6538    2.1456    0.0000 C   0  0  0  0  0  0  0  0  0  0  0  0
    4.3683    2.5581    0.0000 C   0  0  0  0  0  0  0  0  0  0  0  0
    5.0828    2.1456    0.0000 C   0  0  0  0  0  0  0  0  0  0  0  0
    5.7972    2.5581    0.0000 C   0  0  0  0  0  0  0  0  0  0  0  0
    5.7972    3.3831    0.0000 C   0  0  0  0  0  0  0  0  0  0  0  0
    6.5117    3.7956    0.0000 C   0  0  0  0  0  0  0  0  0  0  0  0
    6.5117    2.1456    0.0000 C   0  0  0  0  0  0  0  0  0  0  0  0
    6.5117    1.3206    0.0000 O   0  0  0  0  0  0  0  0  0  0  0  0
    7.2262    2.5581    0.0000 O   0  0  0  0  0  0  0  0  0  0  0  0
    7.9407    2.1456    0.0000 C   0  0  0  0  0  0  0  0  0  0  0  0
    8.6551    2.5581    0.0000 C   0  0  0  0  0  0  0  0  0  0  0  0
    3.3519    3.2725    0.0000 H   0  0  0  0  0  0  0  0  0  0  0  0
    2.2249    2.9706    0.0000 H   0  0  0  0  0  0  0  0  0  0  0  0
    2.5269    1.8436    0.0000 H   0  0  0  0  0  0  0  0  0  0  0  0
    3.2836    1.4083    0.0000 H   0  0  0  0  0  0  0  0  0  0  0  0
    4.0241    1.4083    0.0000 H   0  0  0  0  0  0  0  0  0  0  0  0
    4.7386    3.2953    0.0000 H   0  0  0  0  0  0  0  0  0  0  0  0
    3.9980    3.2953    0.0000 H   0  0  0  0  0  0  0  0  0  0  0  0
    4.7125    1.4083    0.0000 H   0  0  0  0  0  0  0  0  0  0  0  0
    5.4530    1.4083    0.0000 H   0  0  0  0  0  0  0  0  0  0  0  0
    5.0828    2.9706    0.0000 H   0  0  0  0  0  0  0  0  0  0  0  0
    5.6540    4.1955    0.0000 H   0  0  0  0  0  0  0  0  0  0  0  0
    5.1653    3.9134    0.0000 H   0  0  0  0  0  0  0  0  0  0  0  0
    6.7426    3.0035    0.0000 H   0  0  0  0  0  0  0  0  0  0  0  0
    7.3359    3.8315    0.0000 H   0  0  0  0  0  0  0  0  0  0  0  0
    6.6727    4.6047    0.0000 H   0  0  0  0  0  0  0  0  0  0  0  0
    7.5704    1.4083    0.0000 H   0  0  0  0  0  0  0  0  0  0  0  0
    8.3109    1.4083    0.0000 H   0  0  0  0  0  0  0  0  0  0  0  0
    9.0676    1.8436    0.0000 H   0  0  0  0  0  0  0  0  0  0  0  0
    9.3696    2.9706    0.0000 H   0  0  0  0  0  0  0  0  0  0  0  0
    8.2426    3.2725    0.0000 H   0  0  0  0  0  0  0  0  0  0  0  0
  1  2  1  0  0  0  0
  2  3  1  0  0  0  0
  3  4  1  0  0  0  0
  4  5  1  0  0  0  0
  5  6  1  0  0  0  0
  6  7  1  0  0  0  0
  5  8  1  0  0  0  0
  8  9  2  0  0  0  0
  8 10  1  0  0  0  0
 10 11  1  0  0  0  0
 11 12  1  0  0  0  0
  1 13  1  0  0  0  0
  1 14  1  0  0  0  0
  1 15  1  0  0  0  0
  2 16  1  0  0  0  0
  2 17  1  0  0  0  0
  3 18  1  0  0  0  0
  3 19  1  0  0  0  0
  4 20  1  0  0  0  0
  4 21  1  0  0  0  0
  5 22  1  0  0  0  0
  6 23  1  0  0  0  0
  6 24  1  0  0  0  0
  7 25  1  0  0  0  0
  7 26  1  0  0  0  0
  7 27  1  0  0  0  0
 11 28  1  0  0  0  0
 11 29  1  0  0  0  0
 12 30  1  0  0  0  0
 12 31  1  0  0  0  0
 12 32  1  0  0  0  0
M  END
> <id>
3146

> <casrn>
2983-37-1

> <smiles (First)>


> <Molecular weight>
172.2646026611328

> <name>
ethyl 2-ethylhexanoate

> <Outcome>
1

> <Molecule (RDKit Mol) (InChI Code)>
InChI=1S/C10H20O2/c1-4-7-8-9(5-2)10(11)12-6-3/h9H,4-8H2,1-3H3

> <reference>
ECHA

> <molecule_form>
A

$$$$

  Mrv1812 01171911372D          

 26 27  0  0  0  0            999 V2000
    2.1434   -0.4125    0.0000 N   0  0  0  0  0  0  0  0  0  0  0  0
    2.1434   -1.2375    0.0000 C   0  0  0  0  0  0  0  0  0  0  0  0
    2.8579   -1.6500    0.0000 N   0  0  0  0  0  0  0  0  0  0  0  0
    2.8579   -2.4750    0.0000 C   0  0  0  0  0  0  0  0  0  0  0  0
    3.5724   -2.8875    0.0000 N   0  0  0  0  0  0  0  0  0  0  0  0
    2.1434   -2.8875    0.0000 N   0  0  0  0  0  0  0  0  0  0  0  0
    1.4289   -2.4750    0.0000 C   0  0  0  0  0  0  0  0  0  0  0  0
    0.7145   -2.8875    0.0000 N   0  0  0  0  0  0  0  0  0  0  0  0
    0.0000   -2.4750    0.0000 C   0  0  0  0  0  0  0  0  0  0  0  0
   -0.7145   -2.8875    0.0000 N   0  0  0  0  0  0  0  0  0  0  0  0
   -1.4289   -2.4750    0.0000 C   0  0  0  0  0  0  0  0  0  0  0  0
   -2.1434   -2.8875    0.0000 N   0  0  0  0  0  0  0  0  0  0  0  0
   -1.4289   -1.6500    0.0000 N   0  0  0  0  0  0  0  0  0  0  0  0
   -0.7145   -1.2375    0.0000 C   0  0  0  0  0  0  0  0  0  0  0  0
   -0.7145   -0.4125    0.0000 N   0  0  0  0  0  0  0  0  0  0  0  0
    0.0000   -1.6500    0.0000 N   0  0  0  0  0  0  0  0  0  0  0  0
    1.4289   -1.6500    0.0000 N   0  0  0  0  0  0  0  0  0  0  0  0
    2.8579    0.0000    0.0000 H   0  0  0  0  0  0  0  0  0  0  0  0
    1.4289    0.0000    0.0000 H   0  0  0  0  0  0  0  0  0  0  0  0
    3.5724   -3.7125    0.0000 H   0  0  0  0  0  0  0  0  0  0  0  0
    4.2868   -2.4750    0.0000 H   0  0  0  0  0  0  0  0  0  0  0  0
    0.7145   -3.7125    0.0000 H   0  0  0  0  0  0  0  0  0  0  0  0
   -2.8579   -2.4750    0.0000 H   0  0  0  0  0  0  0  0  0  0  0  0
   -2.1434   -3.7125    0.0000 H   0  0  0  0  0  0  0  0  0  0  0  0
    0.0000    0.0000    0.0000 H   0  0  0  0  0  0  0  0  0  0  0  0
   -1.4289    0.0000    0.0000 H   0  0  0  0  0  0  0  0  0  0  0  0
  1  2  1  0  0  0  0
  2  3  4  0  0  0  0
  3  4  4  0  0  0  0
  4  5  1  0  0  0  0
  4  6  4  0  0  0  0
  6  7  4  0  0  0  0
  7  8  1  0  0  0  0
  8  9  1  0  0  0  0
  9 10  4  0  0  0  0
 10 11  4  0  0  0  0
 11 12  1  0  0  0  0
 11 13  4  0  0  0  0
 13 14  4  0  0  0  0
 14 15  1  0  0  0  0
 14 16  4  0  0  0  0
  9 16  4  0  0  0  0
  7 17  4  0  0  0  0
  2 17  4  0  0  0  0
  1 18  1  0  0  0  0
  1 19  1  0  0  0  0
  5 20  1  0  0  0  0
  5 21  1  0  0  0  0
  8 22  1  0  0  0  0
 12 23  1  0  0  0  0
 12 24  1  0  0  0  0
 15 25  1  0  0  0  0
 15 26  1  0  0  0  0
M  END
> <id>
2507

> <casrn>
3576-88-3

> <smiles (First)>


> <Molecular weight>
235.2093505859375

> <name>
N~2~-(4,6-diamino-1,3,5-triazin-2-yl)-1,3,5-triazine-2,4,6-triamine

> <Outcome>
0

> <Molecule (RDKit Mol) (InChI Code)>
InChI=1S/C6H9N11/c7-1-11-2(8)14-5(13-1)17-6-15-3(9)12-4(10)16-6/h(H9,7,8,9,10,11,12,13,14,15,16,17)

> <reference>
ECHA

> <molecule_form>
A

$$$$

  Mrv1812 01171911372D          

 47 46  0  0  0  0            999 V2000
    5.9961    4.2868    0.0000 C   0  0  0  0  0  0  0  0  0  0  0  0
    6.7105    4.6993    0.0000 C   0  0  0  0  0  0  0  0  0  0  0  0
    7.4250    4.2868    0.0000 C   0  0  0  0  0  0  0  0  0  0  0  0
    8.1395    4.6993    0.0000 C   0  0  0  0  0  0  0  0  0  0  0  0
    8.8539    4.2868    0.0000 C   0  0  0  0  0  0  0  0  0  0  0  0
    9.5684    4.6993    0.0000 C   0  0  0  0  0  0  0  0  0  0  0  0
   10.2829    4.2868    0.0000 C   0  0  0  0  0  0  0  0  0  0  0  0
   10.9974    4.6993    0.0000 C   0  0  0  0  0  0  0  0  0  0  0  0
   11.7118    4.2868    0.0000 C   0  0  0  0  0  0  0  0  0  0  0  0
   12.4263    4.6993    0.0000 C   0  0  0  0  0  0  0  0  0  0  0  0
   13.1408    4.2868    0.0000 C   0  0  0  0  0  0  0  0  0  0  0  0
   13.8552    4.6993    0.0000 C   0  0  0  0  0  0  0  0  0  0  0  0
   14.5697    4.2868    0.0000 C   0  0  0  0  0  0  0  0  0  0  0  0
   15.2842    4.6993    0.0000 C   0  0  0  0  0  0  0  0  0  0  0  0
   15.2842    5.5243    0.0000 O   0  0  0  0  0  0  0  0  0  0  0  0
   15.9987    4.2868    0.0000 O   0  0  0  0  0  0  0  0  0  0  0  0
   16.7131    4.6993    0.0000 C   0  0  0  0  0  0  0  0  0  0  0  0
    5.5836    5.0013    0.0000 H   0  0  0  0  0  0  0  0  0  0  0  0
    5.2816    3.8743    0.0000 H   0  0  0  0  0  0  0  0  0  0  0  0
    6.4086    3.5723    0.0000 H   0  0  0  0  0  0  0  0  0  0  0  0
    7.0808    5.4365    0.0000 H   0  0  0  0  0  0  0  0  0  0  0  0
    6.3403    5.4365    0.0000 H   0  0  0  0  0  0  0  0  0  0  0  0
    7.0547    3.5496    0.0000 H   0  0  0  0  0  0  0  0  0  0  0  0
    7.7953    3.5496    0.0000 H   0  0  0  0  0  0  0  0  0  0  0  0
    8.5097    5.4365    0.0000 H   0  0  0  0  0  0  0  0  0  0  0  0
    7.7692    5.4365    0.0000 H   0  0  0  0  0  0  0  0  0  0  0  0
    8.4837    3.5496    0.0000 H   0  0  0  0  0  0  0  0  0  0  0  0
    9.2242    3.5496    0.0000 H   0  0  0  0  0  0  0  0  0  0  0  0
    9.9387    5.4365    0.0000 H   0  0  0  0  0  0  0  0  0  0  0  0
    9.1982    5.4365    0.0000 H   0  0  0  0  0  0  0  0  0  0  0  0
    9.9126    3.5496    0.0000 H   0  0  0  0  0  0  0  0  0  0  0  0
   10.6531    3.5496    0.0000 H   0  0  0  0  0  0  0  0  0  0  0  0
   11.3676    5.4365    0.0000 H   0  0  0  0  0  0  0  0  0  0  0  0
   10.6271    5.4365    0.0000 H   0  0  0  0  0  0  0  0  0  0  0  0
   11.3416    3.5496    0.0000 H   0  0  0  0  0  0  0  0  0  0  0  0
   12.0821    3.5496    0.0000 H   0  0  0  0  0  0  0  0  0  0  0  0
   12.7966    5.4365    0.0000 H   0  0  0  0  0  0  0  0  0  0  0  0
   12.0560    5.4365    0.0000 H   0  0  0  0  0  0  0  0  0  0  0  0
   12.7705    3.5496    0.0000 H   0  0  0  0  0  0  0  0  0  0  0  0
   13.5110    3.5496    0.0000 H   0  0  0  0  0  0  0  0  0  0  0  0
   14.2255    5.4365    0.0000 H   0  0  0  0  0  0  0  0  0  0  0  0
   13.4850    5.4365    0.0000 H   0  0  0  0  0  0  0  0  0  0  0  0
   14.1995    3.5496    0.0000 H   0  0  0  0  0  0  0  0  0  0  0  0
   14.9400    3.5496    0.0000 H   0  0  0  0  0  0  0  0  0  0  0  0
   17.1256    3.9848    0.0000 H   0  0  0  0  0  0  0  0  0  0  0  0
   17.4276    5.1118    0.0000 H   0  0  0  0  0  0  0  0  0  0  0  0
   16.3006    5.4138    0.0000 H   0  0  0  0  0  0  0  0  0  0  0  0
  1  2  1  0  0  0  0
  2  3  1  0  0  0  0
  3  4  1  0  0  0  0
  4  5  1  0  0  0  0
  5  6  1  0  0  0  0
  6  7  1  0  0  0  0
  7  8  1  0  0  0  0
  8  9  1  0  0  0  0
  9 10  1  0  0  0  0
 10 11  1  0  0  0  0
 11 12  1  0  0  0  0
 12 13  1  0  0  0  0
 13 14  1  0  0  0  0
 14 15  2  0  0  0  0
 14 16  1  0  0  0  0
 16 17  1  0  0  0  0
  1 18  1  0  0  0  0
  1 19  1  0  0  0  0
  1 20  1  0  0  0  0
  2 21  1  0  0  0  0
  2 22  1  0  0  0  0
  3 23  1  0  0  0  0
  3 24  1  0  0  0  0
  4 25  1  0  0  0  0
  4 26  1  0  0  0  0
  5 27  1  0  0  0  0
  5 28  1  0  0  0  0
  6 29  1  0  0  0  0
  6 30  1  0  0  0  0
  7 31  1  0  0  0  0
  7 32  1  0  0  0  0
  8 33  1  0  0  0  0
  8 34  1  0  0  0  0
  9 35  1  0  0  0  0
  9 36  1  0  0  0  0
 10 37  1  0  0  0  0
 10 38  1  0  0  0  0
 11 39  1  0  0  0  0
 11 40  1  0  0  0  0
 12 41  1  0  0  0  0
 12 42  1  0  0  0  0
 13 43  1  0  0  0  0
 13 44  1  0  0  0  0
 17 45  1  0  0  0  0
 17 46  1  0  0  0  0
 17 47  1  0  0  0  0
M  END
> <id>
3479

> <casrn>
124-10-7

> <smiles (First)>


> <Molecular weight>
242.3975067138672

> <name>
methyl tetradecanoate

> <Outcome>
0

> <Molecule (RDKit Mol) (InChI Code)>
InChI=1S/C15H30O2/c1-3-4-5-6-7-8-9-10-11-12-13-14-15(16)17-2/h3-14H2,1-2H3

> <reference>
ECHA

> <molecule_form>
A

$$$$

  Mrv1812 01171911372D          

 12 12  0  0  0  0            999 V2000
    0.7145    2.0625    0.0000 O   0  0  0  0  0  0  0  0  0  0  0  0
    0.7145    1.2375    0.0000 C   0  0  0  0  0  0  0  0  0  0  0  0
    1.4289    0.8250    0.0000 N   0  0  0  0  0  0  0  0  0  0  0  0
    1.4289   -0.0000    0.0000 C   0  0  0  0  0  0  0  0  0  0  0  0
    2.1434   -0.4125    0.0000 O   0  0  0  0  0  0  0  0  0  0  0  0
    0.7145   -0.4125    0.0000 N   0  0  0  0  0  0  0  0  0  0  0  0
   -0.0000   -0.0000    0.0000 C   0  0  0  0  0  0  0  0  0  0  0  0
   -0.7145   -0.4125    0.0000 O   0  0  0  0  0  0  0  0  0  0  0  0
   -0.0000    0.8250    0.0000 N   0  0  0  0  0  0  0  0  0  0  0  0
    2.1434    1.2375    0.0000 H   0  0  0  0  0  0  0  0  0  0  0  0
    0.7145   -1.2375    0.0000 H   0  0  0  0  0  0  0  0  0  0  0  0
   -0.7145    1.2375    0.0000 H   0  0  0  0  0  0  0  0  0  0  0  0
  1  2  2  0  0  0  0
  2  3  1  0  0  0  0
  3  4  1  0  0  0  0
  4  5  2  0  0  0  0
  4  6  1  0  0  0  0
  6  7  1  0  0  0  0
  7  8  2  0  0  0  0
  7  9  1  0  0  0  0
  2  9  1  0  0  0  0
  3 10  1  0  0  0  0
  6 11  1  0  0  0  0
  9 12  1  0  0  0  0
M  END
> <id>
2823

> <casrn>
108-80-5

> <smiles (First)>


> <Molecular weight>
129.07421875

> <name>
cyanuric acid

> <Outcome>
0

> <Molecule (RDKit Mol) (InChI Code)>
InChI=1S/C3H3N3O3/c7-1-4-2(8)6-3(9)5-1/h(H3,4,5,6,7,8,9)

> <reference>
ECHA

> <molecule_form>
A

$$$$

  Mrv1812 01171911372D          

 21 22  0  0  0  0            999 V2000
    2.7845    0.6979    0.0000 C   0  0  0  0  0  0  0  0  0  0  0  0
    2.0701    1.1104    0.0000 N   0  0  0  0  0  0  0  0  0  0  0  0
    1.3556    0.6979    0.0000 C   0  0  0  0  0  0  0  0  0  0  0  0
    1.3556   -0.1271    0.0000 O   0  0  0  0  0  0  0  0  0  0  0  0
    0.6411    1.1104    0.0000 C   0  0  0  0  0  0  0  0  0  0  0  0
   -0.1435    0.8555    0.0000 N   0  0  0  0  0  0  0  0  0  0  0  0
   -0.6284    1.5229    0.0000 C   0  0  0  0  0  0  0  0  0  0  0  0
   -0.1435    2.1903    0.0000 N   0  0  0  0  0  0  0  0  0  0  0  0
    0.6411    1.9354    0.0000 C   0  0  0  0  0  0  0  0  0  0  0  0
    1.3556    2.3479    0.0000 N   0  0  0  0  0  0  0  0  0  0  0  0
    1.3556    3.1729    0.0000 C   0  0  0  0  0  0  0  0  0  0  0  0
    2.0701    1.9354    0.0000 C   0  0  0  0  0  0  0  0  0  0  0  0
    2.7845    2.3479    0.0000 O   0  0  0  0  0  0  0  0  0  0  0  0
    2.3720   -0.0166    0.0000 H   0  0  0  0  0  0  0  0  0  0  0  0
    3.4990    0.2854    0.0000 H   0  0  0  0  0  0  0  0  0  0  0  0
    3.1970    1.4124    0.0000 H   0  0  0  0  0  0  0  0  0  0  0  0
   -0.3984    0.0708    0.0000 H   0  0  0  0  0  0  0  0  0  0  0  0
   -1.4534    1.5229    0.0000 H   0  0  0  0  0  0  0  0  0  0  0  0
    2.1806    3.1729    0.0000 H   0  0  0  0  0  0  0  0  0  0  0  0
    1.3556    3.9979    0.0000 H   0  0  0  0  0  0  0  0  0  0  0  0
    0.5306    3.1729    0.0000 H   0  0  0  0  0  0  0  0  0  0  0  0
  1  2  1  0  0  0  0
  2  3  1  0  0  0  0
  3  4  2  0  0  0  0
  3  5  1  0  0  0  0
  5  6  4  0  0  0  0
  6  7  4  0  0  0  0
  7  8  4  0  0  0  0
  8  9  4  0  0  0  0
  5  9  4  0  0  0  0
  9 10  1  0  0  0  0
 10 11  1  0  0  0  0
 10 12  1  0  0  0  0
  2 12  1  0  0  0  0
 12 13  2  0  0  0  0
  1 14  1  0  0  0  0
  1 15  1  0  0  0  0
  1 16  1  0  0  0  0
  6 17  1  0  0  0  0
  7 18  1  0  0  0  0
 11 19  1  0  0  0  0
 11 20  1  0  0  0  0
 11 21  1  0  0  0  0
M  END
> <id>
992

> <casrn>
58-55-9

> <smiles (First)>


> <Molecular weight>
180.1640167236328

> <name>
1,3-dimethyl-3,7-dihydro-1H-purine-2,6-dione

> <Outcome>
0

> <Molecule (RDKit Mol) (InChI Code)>
InChI=1S/C7H8N4O2/c1-10-5-4(8-3-9-5)6(12)11(2)7(10)13/h3H,1-2H3,(H,8,9)

> <reference>
ECHA

> <molecule_form>
A

$$$$

  Mrv1812 01171911372D          

 24 23  0  0  0  0            999 V2000
    2.2835    2.1434    0.0000 O   0  0  0  0  0  0  0  0  0  0  0  0
    2.9980    2.5559    0.0000 C   0  0  0  0  0  0  0  0  0  0  0  0
    3.7125    2.1434    0.0000 C   0  0  0  0  0  0  0  0  0  0  0  0
    4.4269    2.5559    0.0000 O   0  0  0  0  0  0  0  0  0  0  0  0
    5.1414    2.1434    0.0000 C   0  0  0  0  0  0  0  0  0  0  0  0
    5.8559    2.5559    0.0000 C   0  0  0  0  0  0  0  0  0  0  0  0
    6.5704    2.1434    0.0000 O   0  0  0  0  0  0  0  0  0  0  0  0
    7.2848    2.5559    0.0000 C   0  0  0  0  0  0  0  0  0  0  0  0
    7.9993    2.1434    0.0000 C   0  0  0  0  0  0  0  0  0  0  0  0
    8.7138    2.5559    0.0000 O   0  0  0  0  0  0  0  0  0  0  0  0
    1.5691    2.5559    0.0000 H   0  0  0  0  0  0  0  0  0  0  0  0
    3.3683    3.2931    0.0000 H   0  0  0  0  0  0  0  0  0  0  0  0
    2.6277    3.2931    0.0000 H   0  0  0  0  0  0  0  0  0  0  0  0
    3.3422    1.4062    0.0000 H   0  0  0  0  0  0  0  0  0  0  0  0
    4.0827    1.4062    0.0000 H   0  0  0  0  0  0  0  0  0  0  0  0
    4.7712    1.4062    0.0000 H   0  0  0  0  0  0  0  0  0  0  0  0
    5.5117    1.4062    0.0000 H   0  0  0  0  0  0  0  0  0  0  0  0
    6.2262    3.2931    0.0000 H   0  0  0  0  0  0  0  0  0  0  0  0
    5.4856    3.2931    0.0000 H   0  0  0  0  0  0  0  0  0  0  0  0
    7.6551    3.2931    0.0000 H   0  0  0  0  0  0  0  0  0  0  0  0
    6.9146    3.2931    0.0000 H   0  0  0  0  0  0  0  0  0  0  0  0
    7.6290    1.4062    0.0000 H   0  0  0  0  0  0  0  0  0  0  0  0
    8.3696    1.4062    0.0000 H   0  0  0  0  0  0  0  0  0  0  0  0
    9.4282    2.1434    0.0000 H   0  0  0  0  0  0  0  0  0  0  0  0
  1  2  1  0  0  0  0
  2  3  1  0  0  0  0
  3  4  1  0  0  0  0
  4  5  1  0  0  0  0
  5  6  1  0  0  0  0
  6  7  1  0  0  0  0
  7  8  1  0  0  0  0
  8  9  1  0  0  0  0
  9 10  1  0  0  0  0
  1 11  1  0  0  0  0
  2 12  1  0  0  0  0
  2 13  1  0  0  0  0
  3 14  1  0  0  0  0
  3 15  1  0  0  0  0
  5 16  1  0  0  0  0
  5 17  1  0  0  0  0
  6 18  1  0  0  0  0
  6 19  1  0  0  0  0
  8 20  1  0  0  0  0
  8 21  1  0  0  0  0
  9 22  1  0  0  0  0
  9 23  1  0  0  0  0
 10 24  1  0  0  0  0
M  END
> <id>
1403

> <casrn>
112-27-6

> <smiles (First)>


> <Molecular weight>
150.17295837402344

> <name>
2-[2-(2-hydroxyethoxy)ethoxy]ethan-1-ol

> <Outcome>
0

> <Molecule (RDKit Mol) (InChI Code)>
InChI=1S/C6H14O4/c7-1-3-9-5-6-10-4-2-8/h7-8H,1-6H2

> <reference>
ECHA

> <molecule_form>
A

$$$$

  Mrv1812 01171911372D          

 46 47  0  0  0  0            999 V2000
   -0.6530   -1.2371    0.0000 C   0  0  0  0  0  0  0  0  0  0  0  0
   -0.6530   -2.0621    0.0000 C   0  0  0  0  0  0  0  0  0  0  0  0
   -1.3675   -2.4746    0.0000 O   0  0  0  0  0  0  0  0  0  0  0  0
   -1.3675   -3.2996    0.0000 C   0  0  0  0  0  0  0  0  0  0  0  0
   -0.6530   -3.7121    0.0000 N   0  0  0  0  0  0  0  0  0  0  0  0
   -0.6530   -4.5371    0.0000 C   0  0  0  0  0  0  0  0  0  0  0  0
    0.0614   -4.9496    0.0000 N   0  0  0  0  0  0  0  0  0  0  0  0
    0.0614   -5.7746    0.0000 C   0  0  0  0  0  0  0  0  0  0  0  0
   -1.3675   -4.9496    0.0000 N   0  0  0  0  0  0  0  0  0  0  0  0
   -2.0820   -4.5371    0.0000 C   0  0  0  0  0  0  0  0  0  0  0  0
   -2.7964   -4.9496    0.0000 N   0  0  0  0  0  0  0  0  0  0  0  0
   -2.7964   -5.7746    0.0000 C   0  0  0  0  0  0  0  0  0  0  0  0
   -2.0820   -6.1871    0.0000 O   0  0  0  0  0  0  0  0  0  0  0  0
   -3.5109   -6.1871    0.0000 N   0  0  0  0  0  0  0  0  0  0  0  0
   -3.5109   -7.0121    0.0000 S   0  0  0  0  0  0  0  0  0  0  0  0
   -4.3359   -7.0121    0.0000 O   0  0  0  0  0  0  0  0  0  0  0  0
   -2.6859   -7.0121    0.0000 O   0  0  0  0  0  0  0  0  0  0  0  0
   -3.5109   -7.8371    0.0000 C   0  0  0  0  0  0  0  0  0  0  0  0
   -2.7964   -8.2496    0.0000 C   0  0  0  0  0  0  0  0  0  0  0  0
   -2.7964   -9.0746    0.0000 C   0  0  0  0  0  0  0  0  0  0  0  0
   -3.5109   -9.4871    0.0000 C   0  0  0  0  0  0  0  0  0  0  0  0
   -4.2254   -9.0746    0.0000 C   0  0  0  0  0  0  0  0  0  0  0  0
   -4.2254   -8.2496    0.0000 C   0  0  0  0  0  0  0  0  0  0  0  0
   -4.9399   -7.8371    0.0000 C   0  0  0  0  0  0  0  0  0  0  0  0
   -4.9399   -7.0121    0.0000 O   0  0  0  0  0  0  0  0  0  0  0  0
   -5.6543   -8.2496    0.0000 O   0  0  0  0  0  0  0  0  0  0  0  0
   -5.6543   -9.0746    0.0000 C   0  0  0  0  0  0  0  0  0  0  0  0
   -2.0820   -3.7121    0.0000 N   0  0  0  0  0  0  0  0  0  0  0  0
    0.1720   -1.2371    0.0000 H   0  0  0  0  0  0  0  0  0  0  0  0
   -0.6530   -0.4121    0.0000 H   0  0  0  0  0  0  0  0  0  0  0  0
   -1.4780   -1.2371    0.0000 H   0  0  0  0  0  0  0  0  0  0  0  0
   -0.1997   -2.7514    0.0000 H   0  0  0  0  0  0  0  0  0  0  0  0
    0.1706   -2.1101    0.0000 H   0  0  0  0  0  0  0  0  0  0  0  0
    0.7759   -4.5371    0.0000 H   0  0  0  0  0  0  0  0  0  0  0  0
   -0.7636   -5.7746    0.0000 H   0  0  0  0  0  0  0  0  0  0  0  0
    0.0614   -6.5996    0.0000 H   0  0  0  0  0  0  0  0  0  0  0  0
    0.8864   -5.7746    0.0000 H   0  0  0  0  0  0  0  0  0  0  0  0
   -3.5109   -4.5371    0.0000 H   0  0  0  0  0  0  0  0  0  0  0  0
   -4.2254   -5.7746    0.0000 H   0  0  0  0  0  0  0  0  0  0  0  0
   -2.0820   -7.8371    0.0000 H   0  0  0  0  0  0  0  0  0  0  0  0
   -2.0820   -9.4871    0.0000 H   0  0  0  0  0  0  0  0  0  0  0  0
   -3.5109  -10.3121    0.0000 H   0  0  0  0  0  0  0  0  0  0  0  0
   -4.9399   -9.4871    0.0000 H   0  0  0  0  0  0  0  0  0  0  0  0
   -6.3688   -8.6621    0.0000 H   0  0  0  0  0  0  0  0  0  0  0  0
   -6.3688   -9.4871    0.0000 H   0  0  0  0  0  0  0  0  0  0  0  0
   -5.6543   -9.8996    0.0000 H   0  0  0  0  0  0  0  0  0  0  0  0
  1  2  1  0  0  0  0
  2  3  1  0  0  0  0
  3  4  1  0  0  0  0
  4  5  4  0  0  0  0
  5  6  4  0  0  0  0
  6  7  1  0  0  0  0
  7  8  1  0  0  0  0
  6  9  4  0  0  0  0
  9 10  4  0  0  0  0
 10 11  1  0  0  0  0
 11 12  1  0  0  0  0
 12 13  2  0  0  0  0
 12 14  1  0  0  0  0
 14 15  1  0  0  0  0
 15 16  2  0  0  0  0
 15 17  2  0  0  0  0
 15 18  1  0  0  0  0
 18 19  4  0  0  0  0
 19 20  4  0  0  0  0
 20 21  4  0  0  0  0
 21 22  4  0  0  0  0
 22 23  4  0  0  0  0
 18 23  4  0  0  0  0
 23 24  1  0  0  0  0
 24 25  2  0  0  0  0
 24 26  1  0  0  0  0
 26 27  1  0  0  0  0
 10 28  4  0  0  0  0
  4 28  4  0  0  0  0
  1 29  1  0  0  0  0
  1 30  1  0  0  0  0
  1 31  1  0  0  0  0
  2 32  1  0  0  0  0
  2 33  1  0  0  0  0
  7 34  1  0  0  0  0
  8 35  1  0  0  0  0
  8 36  1  0  0  0  0
  8 37  1  0  0  0  0
 11 38  1  0  0  0  0
 14 39  1  0  0  0  0
 19 40  1  0  0  0  0
 20 41  1  0  0  0  0
 21 42  1  0  0  0  0
 22 43  1  0  0  0  0
 27 44  1  0  0  0  0
 27 45  1  0  0  0  0
 27 46  1  0  0  0  0
M  END
> <id>
4322

> <casrn>
97780-06-8

> <smiles (First)>


> <Molecular weight>
410.405029296875

> <name>
unnamed [97780-06-8]

> <Outcome>
0

> <Molecule (RDKit Mol) (InChI Code)>
InChI=1S/C15H18N6O6S/c1-4-27-15-19-12(16-2)17-13(20-15)18-14(23)21-28(24,25)10-8-6-5-7-9(10)11(22)26-3/h5-8H,4H2,1-3H3,(H3,16,17,18,19,20,21,23)

> <reference>
ECHA

> <molecule_form>
A

$$$$

  Mrv1812 01171911372D          

 61 64  0  0  0  0            999 V2000
    0.0438   -0.0099    0.0000 C   0  0  0  0  0  0  0  0  0  0  0  0
    0.7582   -0.4224    0.0000 C   0  0  0  0  0  0  0  0  0  0  0  0
    0.7582   -1.2474    0.0000 N   0  0  0  0  0  0  0  0  0  0  0  0
    1.4727   -1.6599    0.0000 C   0  0  0  0  0  0  0  0  0  0  0  0
    2.1872   -1.2474    0.0000 C   0  0  0  0  0  0  0  0  0  0  0  0
    2.9017   -1.6599    0.0000 C   0  0  0  0  0  0  0  0  0  0  0  0
    3.6161   -1.2474    0.0000 O   0  3  0  0  0  0  0  0  0  0  0  0
    4.3306   -1.6599    0.0000 C   0  0  0  0  0  0  0  0  0  0  0  0
    5.0451   -1.2474    0.0000 C   0  0  0  0  0  0  0  0  0  0  0  0
    5.7595   -1.6599    0.0000 C   0  0  0  0  0  0  0  0  0  0  0  0
    6.4740   -1.2474    0.0000 N   0  0  0  0  0  0  0  0  0  0  0  0
    6.4740   -0.4224    0.0000 C   0  0  0  0  0  0  0  0  0  0  0  0
    7.1885   -0.0099    0.0000 C   0  0  0  0  0  0  0  0  0  0  0  0
    5.7595   -2.4849    0.0000 C   0  0  0  0  0  0  0  0  0  0  0  0
    6.4740   -2.8974    0.0000 C   0  0  0  0  0  0  0  0  0  0  0  0
    5.0451   -2.8974    0.0000 C   0  0  0  0  0  0  0  0  0  0  0  0
    4.3306   -2.4849    0.0000 C   0  0  0  0  0  0  0  0  0  0  0  0
    3.6161   -2.8974    0.0000 C   0  0  0  0  0  0  0  0  0  0  0  0
    3.6161   -3.7224    0.0000 C   0  0  0  0  0  0  0  0  0  0  0  0
    4.3306   -4.1349    0.0000 C   0  0  0  0  0  0  0  0  0  0  0  0
    4.3306   -4.9599    0.0000 C   0  0  0  0  0  0  0  0  0  0  0  0
    3.6161   -5.3724    0.0000 C   0  0  0  0  0  0  0  0  0  0  0  0
    2.9017   -4.9599    0.0000 C   0  0  0  0  0  0  0  0  0  0  0  0
    2.9017   -4.1349    0.0000 C   0  0  0  0  0  0  0  0  0  0  0  0
    2.1872   -3.7224    0.0000 C   0  0  0  0  0  0  0  0  0  0  0  0
    1.7023   -3.0550    0.0000 O   0  0  0  0  0  0  0  0  0  0  0  0
    1.4727   -4.1349    0.0000 O   0  0  0  0  0  0  0  0  0  0  0  0
    0.7582   -3.7224    0.0000 C   0  0  0  0  0  0  0  0  0  0  0  0
    2.9017   -2.4849    0.0000 C   0  0  0  0  0  0  0  0  0  0  0  0
    2.1872   -2.8974    0.0000 C   0  0  0  0  0  0  0  0  0  0  0  0
    1.4727   -2.4849    0.0000 C   0  0  0  0  0  0  0  0  0  0  0  0
    0.7582   -2.8974    0.0000 C   0  0  0  0  0  0  0  0  0  0  0  0
    0.4563    0.7046    0.0000 H   0  0  0  0  0  0  0  0  0  0  0  0
   -0.6707    0.4026    0.0000 H   0  0  0  0  0  0  0  0  0  0  0  0
   -0.3687   -0.7244    0.0000 H   0  0  0  0  0  0  0  0  0  0  0  0
    1.5818   -0.3744    0.0000 H   0  0  0  0  0  0  0  0  0  0  0  0
    1.2116    0.2669    0.0000 H   0  0  0  0  0  0  0  0  0  0  0  0
    0.0438   -1.6599    0.0000 H   0  0  0  0  0  0  0  0  0  0  0  0
    2.1872   -0.4224    0.0000 H   0  0  0  0  0  0  0  0  0  0  0  0
    5.0451   -0.4224    0.0000 H   0  0  0  0  0  0  0  0  0  0  0  0
    7.1885   -1.6599    0.0000 H   0  0  0  0  0  0  0  0  0  0  0  0
    6.0207    0.2669    0.0000 H   0  0  0  0  0  0  0  0  0  0  0  0
    5.6504   -0.3744    0.0000 H   0  0  0  0  0  0  0  0  0  0  0  0
    7.6010   -0.7244    0.0000 H   0  0  0  0  0  0  0  0  0  0  0  0
    7.9029    0.4026    0.0000 H   0  0  0  0  0  0  0  0  0  0  0  0
    6.7760    0.7046    0.0000 H   0  0  0  0  0  0  0  0  0  0  0  0
    6.0615   -3.6119    0.0000 H   0  0  0  0  0  0  0  0  0  0  0  0
    7.1885   -3.3099    0.0000 H   0  0  0  0  0  0  0  0  0  0  0  0
    6.8865   -2.1829    0.0000 H   0  0  0  0  0  0  0  0  0  0  0  0
    5.0451   -3.7224    0.0000 H   0  0  0  0  0  0  0  0  0  0  0  0
    4.3306   -3.3099    0.0000 H   0  0  0  0  0  0  0  0  0  0  0  0
    5.0451   -5.3724    0.0000 H   0  0  0  0  0  0  0  0  0  0  0  0
    3.6161   -6.1974    0.0000 H   0  0  0  0  0  0  0  0  0  0  0  0
    2.1872   -5.3724    0.0000 H   0  0  0  0  0  0  0  0  0  0  0  0
    0.0438   -3.3099    0.0000 H   0  0  0  0  0  0  0  0  0  0  0  0
    0.0438   -4.1349    0.0000 H   0  0  0  0  0  0  0  0  0  0  0  0
    0.7582   -4.5474    0.0000 H   0  0  0  0  0  0  0  0  0  0  0  0
    2.9017   -3.3099    0.0000 H   0  0  0  0  0  0  0  0  0  0  0  0
    0.9718   -2.1005    0.0000 H   0  0  0  0  0  0  0  0  0  0  0  0
    0.3457   -2.1829    0.0000 H   0  0  0  0  0  0  0  0  0  0  0  0
   -0.0386   -2.6839    0.0000 H   0  0  0  0  0  0  0  0  0  0  0  0
  1  2  1  0  0  0  0
  2  3  1  0  0  0  0
  3  4  1  0  0  0  0
  4  5  4  0  0  0  0
  5  6  4  0  0  0  0
  6  7  4  0  0  0  0
  7  8  4  0  0  0  0
  8  9  4  0  0  0  0
  9 10  4  0  0  0  0
 10 11  1  0  0  0  0
 11 12  1  0  0  0  0
 12 13  1  0  0  0  0
 10 14  4  0  0  0  0
 14 15  1  0  0  0  0
 14 16  4  0  0  0  0
 16 17  4  0  0  0  0
  8 17  4  0  0  0  0
 17 18  4  0  0  0  0
 18 19  1  0  0  0  0
 19 20  4  0  0  0  0
 20 21  4  0  0  0  0
 21 22  4  0  0  0  0
 22 23  4  0  0  0  0
 23 24  4  0  0  0  0
 19 24  4  0  0  0  0
 24 25  1  0  0  0  0
 25 26  2  0  0  0  0
 25 27  1  0  0  0  0
 27 28  1  0  0  0  0
 18 29  4  0  0  0  0
  6 29  4  0  0  0  0
 29 30  4  0  0  0  0
 30 31  4  0  0  0  0
  4 31  4  0  0  0  0
 31 32  1  0  0  0  0
  1 33  1  0  0  0  0
  1 34  1  0  0  0  0
  1 35  1  0  0  0  0
  2 36  1  0  0  0  0
  2 37  1  0  0  0  0
  3 38  1  0  0  0  0
  5 39  1  0  0  0  0
  9 40  1  0  0  0  0
 11 41  1  0  0  0  0
 12 42  1  0  0  0  0
 12 43  1  0  0  0  0
 13 44  1  0  0  0  0
 13 45  1  0  0  0  0
 13 46  1  0  0  0  0
 15 47  1  0  0  0  0
 15 48  1  0  0  0  0
 15 49  1  0  0  0  0
 16 50  1  0  0  0  0
 20 51  1  0  0  0  0
 21 52  1  0  0  0  0
 22 53  1  0  0  0  0
 23 54  1  0  0  0  0
 28 55  1  0  0  0  0
 28 56  1  0  0  0  0
 28 57  1  0  0  0  0
 30 58  1  0  0  0  0
 32 59  1  0  0  0  0
 32 60  1  0  0  0  0
 32 61  1  0  0  0  0
M  CHG  1   7   1
M  END
> <id>
1738

> <casrn>
3068-39-1

> <smiles (First)>


> <Molecular weight>
429.53076171875

> <name>
3,6-bis(ethylamino)-9-[2-(methoxycarbonyl)phenyl]-2,7-dimethyl-10??????-xanthen-10-ylium chloride

> <Outcome>
1

> <Molecule (RDKit Mol) (InChI Code)>
InChI=1S/C27H29N2O3/c1-6-28-22-14-24-20(12-16(22)3)26(18-10-8-9-11-19(18)27(30)31-5)21-13-17(4)23(29-7-2)15-25(21)32-24/h8-15,28-29H,6-7H2,1-5H3/q+1

> <reference>
ECHA

> <molecule_form>
A

$$$$

  Mrv1812 01171911372D          

 24 24  0  0  0  0            999 V2000
    0.7145    2.0625    0.0000 C   0  0  0  0  0  0  0  0  0  0  0  0
    0.7145    1.2375    0.0000 N   0  0  0  0  0  0  0  0  0  0  0  0
    1.4289    0.8250    0.0000 C   0  0  0  0  0  0  0  0  0  0  0  0
    2.1434    1.2375    0.0000 N   0  0  0  0  0  0  0  0  0  0  0  0
    1.4289   -0.0000    0.0000 C   0  0  0  0  0  0  0  0  0  0  0  0
    2.1434   -0.4125    0.0000 N   0  0  0  0  0  0  0  0  0  0  0  0
    2.1434   -1.2375    0.0000 C   0  0  0  0  0  0  0  0  0  0  0  0
    2.8579   -1.6500    0.0000 O   0  0  0  0  0  0  0  0  0  0  0  0
    0.7145   -0.4125    0.0000 C   0  0  0  0  0  0  0  0  0  0  0  0
    0.7145   -1.2375    0.0000 O   0  0  0  0  0  0  0  0  0  0  0  0
   -0.0000    0.0000    0.0000 N   0  0  0  0  0  0  0  0  0  0  0  0
   -0.7145   -0.4125    0.0000 C   0  0  0  0  0  0  0  0  0  0  0  0
   -0.0000    0.8250    0.0000 C   0  0  0  0  0  0  0  0  0  0  0  0
   -0.7145    1.2375    0.0000 O   0  0  0  0  0  0  0  0  0  0  0  0
    1.5395    2.0625    0.0000 H   0  0  0  0  0  0  0  0  0  0  0  0
    0.7145    2.8875    0.0000 H   0  0  0  0  0  0  0  0  0  0  0  0
   -0.1105    2.0625    0.0000 H   0  0  0  0  0  0  0  0  0  0  0  0
    2.8579    0.8250    0.0000 H   0  0  0  0  0  0  0  0  0  0  0  0
    2.1434    2.0625    0.0000 H   0  0  0  0  0  0  0  0  0  0  0  0
    2.8579   -0.0000    0.0000 H   0  0  0  0  0  0  0  0  0  0  0  0
    1.4289   -1.6500    0.0000 H   0  0  0  0  0  0  0  0  0  0  0  0
   -1.1270    0.3020    0.0000 H   0  0  0  0  0  0  0  0  0  0  0  0
   -1.4289   -0.8250    0.0000 H   0  0  0  0  0  0  0  0  0  0  0  0
   -0.3020   -1.1270    0.0000 H   0  0  0  0  0  0  0  0  0  0  0  0
  1  2  1  0  0  0  0
  2  3  1  0  0  0  0
  3  4  1  0  0  0  0
  3  5  2  0  0  0  0
  5  6  1  0  0  0  0
  6  7  1  0  0  0  0
  7  8  2  0  0  0  0
  5  9  1  0  0  0  0
  9 10  2  0  0  0  0
  9 11  1  0  0  0  0
 11 12  1  0  0  0  0
 11 13  1  0  0  0  0
  2 13  1  0  0  0  0
 13 14  2  0  0  0  0
  1 15  1  0  0  0  0
  1 16  1  0  0  0  0
  1 17  1  0  0  0  0
  4 18  1  0  0  0  0
  4 19  1  0  0  0  0
  6 20  1  0  0  0  0
  7 21  1  0  0  0  0
 12 22  1  0  0  0  0
 12 23  1  0  0  0  0
 12 24  1  0  0  0  0
M  END
> <id>
2397

> <casrn>
7597-60-6

> <smiles (First)>


> <Molecular weight>
198.17930603027344

> <name>
N-(6-amino-1,3-dimethyl-2,4-dioxo-1,2,3,4-tetrahydropyrimidin-5-yl)formamide

> <Outcome>
0

> <Molecule (RDKit Mol) (InChI Code)>
InChI=1S/C7H10N4O3/c1-10-5(8)4(9-3-12)6(13)11(2)7(10)14/h3H,8H2,1-2H3,(H,9,12)

> <reference>
ECHA

> <molecule_form>
A

$$$$

  Mrv1812 01171911372D          

 15 14  0  0  0  0            999 V2000
    1.7605    1.8414    0.0000 Cl  0  0  0  0  0  0  0  0  0  0  0  0
    2.4750    1.4289    0.0000 C   0  0  0  0  0  0  0  0  0  0  0  0
    3.1895    1.8414    0.0000 C   0  0  0  0  0  0  0  0  0  0  0  0
    3.9039    1.4289    0.0000 O   0  0  0  0  0  0  0  0  0  0  0  0
    4.6184    1.8414    0.0000 C   0  0  0  0  0  0  0  0  0  0  0  0
    5.3329    1.4289    0.0000 C   0  0  0  0  0  0  0  0  0  0  0  0
    6.0474    1.8414    0.0000 Cl  0  0  0  0  0  0  0  0  0  0  0  0
    2.1047    0.6917    0.0000 H   0  0  0  0  0  0  0  0  0  0  0  0
    2.8453    0.6917    0.0000 H   0  0  0  0  0  0  0  0  0  0  0  0
    3.5597    2.5786    0.0000 H   0  0  0  0  0  0  0  0  0  0  0  0
    2.8192    2.5786    0.0000 H   0  0  0  0  0  0  0  0  0  0  0  0
    4.9887    2.5786    0.0000 H   0  0  0  0  0  0  0  0  0  0  0  0
    4.2482    2.5786    0.0000 H   0  0  0  0  0  0  0  0  0  0  0  0
    4.9626    0.6917    0.0000 H   0  0  0  0  0  0  0  0  0  0  0  0
    5.7032    0.6917    0.0000 H   0  0  0  0  0  0  0  0  0  0  0  0
  1  2  1  0  0  0  0
  2  3  1  0  0  0  0
  3  4  1  0  0  0  0
  4  5  1  0  0  0  0
  5  6  1  0  0  0  0
  6  7  1  0  0  0  0
  2  8  1  0  0  0  0
  2  9  1  0  0  0  0
  3 10  1  0  0  0  0
  3 11  1  0  0  0  0
  5 12  1  0  0  0  0
  5 13  1  0  0  0  0
  6 14  1  0  0  0  0
  6 15  1  0  0  0  0
M  END
> <id>
1130; 1129; 1131; 1128

> <casrn>
111-44-4

> <smiles (First)>


> <Molecular weight>
143.01171875

> <name>
1-chloro-2-(2-chloroethoxy)ethane

> <Outcome>
1

> <Molecule (RDKit Mol) (InChI Code)>
InChI=1S/C4H8Cl2O/c5-1-3-7-4-2-6/h1-4H2

> <reference>
ECHA

> <molecule_form>
V

$$$$

  Mrv1812 01171911372D          

 38 39  0  0  0  0            999 V2000
   -0.0518   -1.5966    0.0000 C   0  0  0  0  0  0  0  0  0  0  0  0
    0.6627   -1.1841    0.0000 C   0  0  0  0  0  0  0  0  0  0  0  0
    1.3772   -1.5966    0.0000 C   0  0  0  0  0  0  0  0  0  0  0  0
    1.3772   -2.4216    0.0000 C   0  0  0  0  0  0  0  0  0  0  0  0
    2.2022   -2.4216    0.0000 C   0  0  0  0  0  0  0  0  0  0  0  0
    0.5522   -2.4216    0.0000 C   0  0  0  0  0  0  0  0  0  0  0  0
    1.3772   -3.2466    0.0000 C   0  0  0  0  0  0  0  0  0  0  0  0
    2.0916   -3.6591    0.0000 C   0  0  0  0  0  0  0  0  0  0  0  0
    2.0916   -4.4841    0.0000 C   0  0  0  0  0  0  0  0  0  0  0  0
    1.3772   -4.8966    0.0000 C   0  0  0  0  0  0  0  0  0  0  0  0
    0.6627   -4.4841    0.0000 C   0  0  0  0  0  0  0  0  0  0  0  0
    0.6627   -3.6591    0.0000 C   0  0  0  0  0  0  0  0  0  0  0  0
    0.6627   -0.3591    0.0000 C   0  0  0  0  0  0  0  0  0  0  0  0
   -0.0518    0.0534    0.0000 C   0  0  0  0  0  0  0  0  0  0  0  0
   -0.0518    0.8784    0.0000 C   0  0  0  0  0  0  0  0  0  0  0  0
    0.6627    1.2909    0.0000 C   0  0  0  0  0  0  0  0  0  0  0  0
    1.3772    0.8784    0.0000 C   0  0  0  0  0  0  0  0  0  0  0  0
    1.3772    0.0534    0.0000 C   0  0  0  0  0  0  0  0  0  0  0  0
   -0.7662   -1.1841    0.0000 H   0  0  0  0  0  0  0  0  0  0  0  0
   -0.0518   -2.4216    0.0000 H   0  0  0  0  0  0  0  0  0  0  0  0
    2.2008   -1.5487    0.0000 H   0  0  0  0  0  0  0  0  0  0  0  0
    1.8305   -0.9073    0.0000 H   0  0  0  0  0  0  0  0  0  0  0  0
    1.8868   -3.1840    0.0000 H   0  0  0  0  0  0  0  0  0  0  0  0
    2.7860   -3.0045    0.0000 H   0  0  0  0  0  0  0  0  0  0  0  0
    2.9640   -2.1050    0.0000 H   0  0  0  0  0  0  0  0  0  0  0  0
    0.8343   -1.6464    0.0000 H   0  0  0  0  0  0  0  0  0  0  0  0
    0.2700   -1.6464    0.0000 H   0  0  0  0  0  0  0  0  0  0  0  0
    0.5522   -3.2466    0.0000 H   0  0  0  0  0  0  0  0  0  0  0  0
    2.8491   -3.9860    0.0000 H   0  0  0  0  0  0  0  0  0  0  0  0
    2.5247   -5.1863    0.0000 H   0  0  0  0  0  0  0  0  0  0  0  0
    1.3772   -5.7216    0.0000 H   0  0  0  0  0  0  0  0  0  0  0  0
   -0.0518   -4.8966    0.0000 H   0  0  0  0  0  0  0  0  0  0  0  0
   -0.1553   -3.7668    0.0000 H   0  0  0  0  0  0  0  0  0  0  0  0
   -0.7662   -0.3591    0.0000 H   0  0  0  0  0  0  0  0  0  0  0  0
   -0.7662    1.2909    0.0000 H   0  0  0  0  0  0  0  0  0  0  0  0
    0.6627    2.1159    0.0000 H   0  0  0  0  0  0  0  0  0  0  0  0
    2.0916    1.2909    0.0000 H   0  0  0  0  0  0  0  0  0  0  0  0
    2.0916   -0.3591    0.0000 H   0  0  0  0  0  0  0  0  0  0  0  0
  1  2  2  0  0  0  0
  2  3  1  0  0  0  0
  3  4  1  0  0  0  0
  4  5  1  0  0  0  0
  4  6  1  0  0  0  0
  4  7  1  0  0  0  0
  7  8  4  0  0  0  0
  8  9  4  0  0  0  0
  9 10  4  0  0  0  0
 10 11  4  0  0  0  0
 11 12  4  0  0  0  0
  7 12  4  0  0  0  0
  2 13  1  0  0  0  0
 13 14  4  0  0  0  0
 14 15  4  0  0  0  0
 15 16  4  0  0  0  0
 16 17  4  0  0  0  0
 17 18  4  0  0  0  0
 13 18  4  0  0  0  0
  1 19  1  4  0  0  0
  1 20  1  0  0  0  0
  3 21  1  0  0  0  0
  3 22  1  0  0  0  0
  5 23  1  0  0  0  0
  5 24  1  0  0  0  0
  5 25  1  0  0  0  0
  6 26  1  0  0  0  0
  6 27  1  0  0  0  0
  6 28  1  0  0  0  0
  8 29  1  0  0  0  0
  9 30  1  0  0  0  0
 10 31  1  0  0  0  0
 11 32  1  0  0  0  0
 12 33  1  0  0  0  0
 14 34  1  0  0  0  0
 15 35  1  0  0  0  0
 16 36  1  0  0  0  0
 17 37  1  0  0  0  0
 18 38  1  0  0  0  0
M  END
> <id>
203

> <casrn>
6362-80-7

> <smiles (First)>


> <Molecular weight>
236.35140991210938

> <name>
(4-methyl-4-phenylpent-1-en-2-yl)benzene

> <Outcome>
0

> <Molecule (RDKit Mol) (InChI Code)>
InChI=1S/C18H20/c1-15(16-10-6-4-7-11-16)14-18(2,3)17-12-8-5-9-13-17/h4-13H,1,14H2,2-3H3

> <reference>
ECHA

> <molecule_form>
A

$$$$

  Mrv1812 01171911372D          

 30 30  0  0  0  0            999 V2000
    1.9060    0.8446    0.0000 C   0  0  0  0  0  0  0  0  0  0  0  0
    2.7310    0.8446    0.0000 C   0  0  0  0  0  0  0  0  0  0  0  0
    3.1435    0.1302    0.0000 C   0  0  0  0  0  0  0  0  0  0  0  0
    2.7310   -0.5843    0.0000 C   0  0  0  0  0  0  0  0  0  0  0  0
    1.9060   -0.5843    0.0000 C   0  0  0  0  0  0  0  0  0  0  0  0
    1.4935   -1.2988    0.0000 C   0  0  0  0  0  0  0  0  0  0  0  0
    0.6685   -1.2988    0.0000 C   0  0  0  0  0  0  0  0  0  0  0  0
    0.2560   -0.5843    0.0000 C   0  0  0  0  0  0  0  0  0  0  0  0
    0.6685    0.1302    0.0000 C   0  0  0  0  0  0  0  0  0  0  0  0
    0.2560    0.8446    0.0000 C   0  0  0  0  0  0  0  0  0  0  0  0
    0.6685    1.5591    0.0000 C   0  0  0  0  0  0  0  0  0  0  0  0
    1.4935    1.5591    0.0000 C   0  0  0  0  0  0  0  0  0  0  0  0
    1.4935    0.1302    0.0000 H   0  0  0  0  0  0  0  0  0  0  0  0
    3.1435    1.5591    0.0000 H   0  0  0  0  0  0  0  0  0  0  0  0
    3.8808   -0.2401    0.0000 H   0  0  0  0  0  0  0  0  0  0  0  0
    3.8808    0.5004    0.0000 H   0  0  0  0  0  0  0  0  0  0  0  0
    2.7790   -1.4079    0.0000 H   0  0  0  0  0  0  0  0  0  0  0  0
    3.4203   -1.0377    0.0000 H   0  0  0  0  0  0  0  0  0  0  0  0
    1.0810   -0.5843    0.0000 H   0  0  0  0  0  0  0  0  0  0  0  0
    1.9060   -2.0133    0.0000 H   0  0  0  0  0  0  0  0  0  0  0  0
   -0.0207   -1.7521    0.0000 H   0  0  0  0  0  0  0  0  0  0  0  0
    0.6206   -2.1224    0.0000 H   0  0  0  0  0  0  0  0  0  0  0  0
   -0.4812   -0.2141    0.0000 H   0  0  0  0  0  0  0  0  0  0  0  0
   -0.4812   -0.9546    0.0000 H   0  0  0  0  0  0  0  0  0  0  0  0
    1.0810    0.8446    0.0000 H   0  0  0  0  0  0  0  0  0  0  0  0
   -0.5690    0.8446    0.0000 H   0  0  0  0  0  0  0  0  0  0  0  0
    0.6206    2.3827    0.0000 H   0  0  0  0  0  0  0  0  0  0  0  0
   -0.0207    2.0124    0.0000 H   0  0  0  0  0  0  0  0  0  0  0  0
    2.1828    2.0124    0.0000 H   0  0  0  0  0  0  0  0  0  0  0  0
    1.5415    2.3827    0.0000 H   0  0  0  0  0  0  0  0  0  0  0  0
  1  2  2  0  0  0  0
  2  3  1  0  0  0  0
  3  4  1  0  0  0  0
  5  4  1  4  0  0  0
  5  6  2  0  0  0  0
  6  7  1  0  0  0  0
  7  8  1  0  0  0  0
  9  8  1  4  0  0  0
  9 10  2  0  0  0  0
 10 11  1  0  0  0  0
 11 12  1  0  0  0  0
  1 12  1  4  0  0  0
  1 13  1  0  0  0  0
  2 14  1  0  0  0  0
  3 15  1  0  0  0  0
  3 16  1  0  0  0  0
  4 17  1  0  0  0  0
  4 18  1  0  0  0  0
  5 19  1  0  0  0  0
  6 20  1  0  0  0  0
  7 21  1  0  0  0  0
  7 22  1  0  0  0  0
  8 23  1  0  0  0  0
  8 24  1  0  0  0  0
  9 25  1  0  0  0  0
 10 26  1  0  0  0  0
 11 27  1  0  0  0  0
 11 28  1  0  0  0  0
 12 29  1  0  0  0  0
 12 30  1  0  0  0  0
M  END
> <id>
2827; 2826; 152

> <casrn>
4904-61-4

> <smiles (First)>


> <Molecular weight>
162.27133178710938

> <name>
cyclododeca-1,5,9-triene

> <Outcome>
0

> <Molecule (RDKit Mol) (InChI Code)>
InChI=1S/C12H18/c1-2-4-6-8-10-12-11-9-7-5-3-1/h1-2,7-10H,3-6,11-12H2/b2-1+,9-7+,10-8+

> <reference>
ECHA

> <molecule_form>
A

$$$$

  Mrv1812 01171911372D          

 42 43  0  0  0  0            999 V2000
    2.8671    0.1400    0.0000 C   0  0  0  0  0  0  0  0  0  0  0  0
    2.1527   -0.2725    0.0000 O   0  0  0  0  0  0  0  0  0  0  0  0
    2.1527   -1.0975    0.0000 N   0  0  0  0  0  0  0  0  0  0  0  0
    1.4382   -1.5100    0.0000 C   0  0  0  0  0  0  0  0  0  0  0  0
    0.7237   -1.0975    0.0000 C   0  0  0  0  0  0  0  0  0  0  0  0
    0.0092   -1.5100    0.0000 O   0  0  0  0  0  0  0  0  0  0  0  0
    0.7237   -0.2725    0.0000 O   0  0  0  0  0  0  0  0  0  0  0  0
    0.0092    0.1400    0.0000 C   0  0  0  0  0  0  0  0  0  0  0  0
    1.4382   -2.3350    0.0000 C   0  0  0  0  0  0  0  0  0  0  0  0
    2.1527   -2.7475    0.0000 C   0  0  0  0  0  0  0  0  0  0  0  0
    2.1527   -3.5725    0.0000 C   0  0  0  0  0  0  0  0  0  0  0  0
    1.4382   -3.9850    0.0000 C   0  0  0  0  0  0  0  0  0  0  0  0
    0.7237   -3.5725    0.0000 C   0  0  0  0  0  0  0  0  0  0  0  0
    0.7237   -2.7475    0.0000 C   0  0  0  0  0  0  0  0  0  0  0  0
    0.0092   -2.3350    0.0000 C   0  0  0  0  0  0  0  0  0  0  0  0
   -0.7052   -2.7475    0.0000 O   0  0  0  0  0  0  0  0  0  0  0  0
   -1.4197   -2.3350    0.0000 C   0  0  0  0  0  0  0  0  0  0  0  0
   -2.1342   -2.7475    0.0000 C   0  0  0  0  0  0  0  0  0  0  0  0
   -2.8486   -2.3350    0.0000 C   0  0  0  0  0  0  0  0  0  0  0  0
   -2.8486   -1.5100    0.0000 C   0  0  0  0  0  0  0  0  0  0  0  0
   -2.1342   -1.0975    0.0000 C   0  0  0  0  0  0  0  0  0  0  0  0
   -1.4197   -1.5100    0.0000 C   0  0  0  0  0  0  0  0  0  0  0  0
   -0.7052   -1.0975    0.0000 C   0  0  0  0  0  0  0  0  0  0  0  0
    3.2796   -0.5745    0.0000 H   0  0  0  0  0  0  0  0  0  0  0  0
    3.5816    0.5525    0.0000 H   0  0  0  0  0  0  0  0  0  0  0  0
    2.4546    0.8544    0.0000 H   0  0  0  0  0  0  0  0  0  0  0  0
    0.4217    0.8544    0.0000 H   0  0  0  0  0  0  0  0  0  0  0  0
   -0.7052    0.5525    0.0000 H   0  0  0  0  0  0  0  0  0  0  0  0
   -0.4033   -0.5745    0.0000 H   0  0  0  0  0  0  0  0  0  0  0  0
    2.8671   -2.3350    0.0000 H   0  0  0  0  0  0  0  0  0  0  0  0
    2.8671   -3.9850    0.0000 H   0  0  0  0  0  0  0  0  0  0  0  0
    1.4382   -4.8100    0.0000 H   0  0  0  0  0  0  0  0  0  0  0  0
    0.0092   -3.9850    0.0000 H   0  0  0  0  0  0  0  0  0  0  0  0
    0.7237   -1.9225    0.0000 H   0  0  0  0  0  0  0  0  0  0  0  0
    0.0092   -3.1600    0.0000 H   0  0  0  0  0  0  0  0  0  0  0  0
   -2.1342   -3.5725    0.0000 H   0  0  0  0  0  0  0  0  0  0  0  0
   -3.5631   -2.7475    0.0000 H   0  0  0  0  0  0  0  0  0  0  0  0
   -3.5631   -1.0975    0.0000 H   0  0  0  0  0  0  0  0  0  0  0  0
   -2.1342   -0.2725    0.0000 H   0  0  0  0  0  0  0  0  0  0  0  0
   -1.2886   -0.5142    0.0000 H   0  0  0  0  0  0  0  0  0  0  0  0
   -0.7052   -1.9225    0.0000 H   0  0  0  0  0  0  0  0  0  0  0  0
    0.0917   -0.8840    0.0000 H   0  0  0  0  0  0  0  0  0  0  0  0
  1  2  1  0  0  0  0
  3  2  1  4  0  0  0
  3  4  2  0  0  0  0
  4  5  1  0  0  0  0
  5  6  2  0  0  0  0
  5  7  1  0  0  0  0
  7  8  1  0  0  0  0
  4  9  1  0  0  0  0
  9 10  4  0  0  0  0
 10 11  4  0  0  0  0
 11 12  4  0  0  0  0
 12 13  4  0  0  0  0
 13 14  4  0  0  0  0
  9 14  4  0  0  0  0
 14 15  1  0  0  0  0
 15 16  1  0  0  0  0
 16 17  1  0  0  0  0
 17 18  4  0  0  0  0
 18 19  4  0  0  0  0
 19 20  4  0  0  0  0
 20 21  4  0  0  0  0
 21 22  4  0  0  0  0
 17 22  4  0  0  0  0
 22 23  1  0  0  0  0
  1 24  1  0  0  0  0
  1 25  1  0  0  0  0
  1 26  1  0  0  0  0
  8 27  1  0  0  0  0
  8 28  1  0  0  0  0
  8 29  1  0  0  0  0
 10 30  1  0  0  0  0
 11 31  1  0  0  0  0
 12 32  1  0  0  0  0
 13 33  1  0  0  0  0
 15 34  1  0  0  0  0
 15 35  1  0  0  0  0
 18 36  1  0  0  0  0
 19 37  1  0  0  0  0
 20 38  1  0  0  0  0
 21 39  1  0  0  0  0
 23 40  1  0  0  0  0
 23 41  1  0  0  0  0
 23 42  1  0  0  0  0
M  END
> <id>
363

> <casrn>
143390-89-0

> <smiles (First)>


> <Molecular weight>
313.3477783203125

> <name>
-

> <Outcome>
0

> <Molecule (RDKit Mol) (InChI Code)>
InChI=1S/C18H19NO4/c1-13-8-4-7-11-16(13)23-12-14-9-5-6-10-15(14)17(19-22-3)18(20)21-2/h4-11H,12H2,1-3H3

> <reference>
ECHA

> <molecule_form>
A

$$$$

  Mrv1812 01171911372D          

 17 17  0  0  0  0            999 V2000
    0.7145    2.0625    0.0000 C   0  0  0  0  0  0  0  0  0  0  0  0
    0.7145    1.2375    0.0000 C   0  0  0  0  0  0  0  0  0  0  0  0
    1.4289    0.8250    0.0000 C   0  0  0  0  0  0  0  0  0  0  0  0
    1.4289   -0.0000    0.0000 C   0  0  0  0  0  0  0  0  0  0  0  0
    0.7145   -0.4125    0.0000 C   0  0  0  0  0  0  0  0  0  0  0  0
    0.7145   -1.2375    0.0000 N   0  0  0  0  0  0  0  0  0  0  0  0
    1.4289   -1.6500    0.0000 O   0  0  0  0  0  0  0  0  0  0  0  0
    0.0000   -1.6500    0.0000 O   0  0  0  0  0  0  0  0  0  0  0  0
    0.0000    0.0000    0.0000 C   0  0  0  0  0  0  0  0  0  0  0  0
    0.0000    0.8250    0.0000 C   0  0  0  0  0  0  0  0  0  0  0  0
    1.5395    2.0625    0.0000 H   0  0  0  0  0  0  0  0  0  0  0  0
    0.7145    2.8875    0.0000 H   0  0  0  0  0  0  0  0  0  0  0  0
   -0.1105    2.0625    0.0000 H   0  0  0  0  0  0  0  0  0  0  0  0
    2.1434    1.2375    0.0000 H   0  0  0  0  0  0  0  0  0  0  0  0
    2.1434   -0.4125    0.0000 H   0  0  0  0  0  0  0  0  0  0  0  0
   -0.7145   -0.4125    0.0000 H   0  0  0  0  0  0  0  0  0  0  0  0
   -0.7145    1.2375    0.0000 H   0  0  0  0  0  0  0  0  0  0  0  0
  1  2  1  0  0  0  0
  2  3  4  0  0  0  0
  3  4  4  0  0  0  0
  4  5  4  0  0  0  0
  5  6  1  0  0  0  0
  6  7  2  0  0  0  0
  6  8  2  0  0  0  0
  5  9  4  0  0  0  0
  9 10  4  0  0  0  0
  2 10  4  0  0  0  0
  1 11  1  0  0  0  0
  1 12  1  0  0  0  0
  1 13  1  0  0  0  0
  3 14  1  0  0  0  0
  4 15  1  0  0  0  0
  9 16  1  0  0  0  0
 10 17  1  0  0  0  0
M  END
> <id>
1198

> <casrn>
99-99-0

> <smiles (First)>


> <Molecular weight>
137.135986328125

> <name>
1-methyl-4-nitrobenzene

> <Outcome>
1

> <Molecule (RDKit Mol) (InChI Code)>
InChI=1S/C7H7NO2/c1-6-2-4-7(5-3-6)8(9)10/h2-5H,1H3

> <reference>
ECHA

> <molecule_form>
A

$$$$

  Mrv1812 01171911372D          

 17 18  0  0  0  0            999 V2000
    2.8543    1.6500    0.0000 C   0  0  0  0  0  0  0  0  0  0  0  0
    2.8543    0.8250    0.0000 C   0  0  0  0  0  0  0  0  0  0  0  0
    2.1398    0.4125    0.0000 C   0  0  0  0  0  0  0  0  0  0  0  0
    1.4253    0.8250    0.0000 C   0  0  0  0  0  0  0  0  0  0  0  0
    0.7109    1.2375    0.0000 O   0  0  0  0  0  0  0  0  0  0  0  0
    1.4253    1.6500    0.0000 C   0  0  0  0  0  0  0  0  0  0  0  0
    2.1398    2.0625    0.0000 C   0  0  0  0  0  0  0  0  0  0  0  0
    3.6779    1.6980    0.0000 H   0  0  0  0  0  0  0  0  0  0  0  0
    3.3076    2.3393    0.0000 H   0  0  0  0  0  0  0  0  0  0  0  0
    3.3076    0.1357    0.0000 H   0  0  0  0  0  0  0  0  0  0  0  0
    3.6779    0.7770    0.0000 H   0  0  0  0  0  0  0  0  0  0  0  0
    1.7695   -0.3247    0.0000 H   0  0  0  0  0  0  0  0  0  0  0  0
    2.5101   -0.3247    0.0000 H   0  0  0  0  0  0  0  0  0  0  0  0
    1.0128    0.1105    0.0000 H   0  0  0  0  0  0  0  0  0  0  0  0
    1.0128    2.3645    0.0000 H   0  0  0  0  0  0  0  0  0  0  0  0
    2.5101    2.7997    0.0000 H   0  0  0  0  0  0  0  0  0  0  0  0
    1.7695    2.7997    0.0000 H   0  0  0  0  0  0  0  0  0  0  0  0
  1  2  1  0  0  0  0
  2  3  1  0  0  0  0
  3  4  1  0  0  0  0
  4  5  1  0  0  0  0
  5  6  1  0  0  0  0
  4  6  1  0  0  0  0
  6  7  1  0  0  0  0
  1  7  1  0  0  0  0
  1  8  1  0  0  0  0
  1  9  1  0  0  0  0
  2 10  1  0  0  0  0
  2 11  1  0  0  0  0
  3 12  1  0  0  0  0
  3 13  1  0  0  0  0
  4 14  1  0  0  0  0
  6 15  1  0  0  0  0
  7 16  1  0  0  0  0
  7 17  1  0  0  0  0
M  END
> <id>
1891

> <casrn>
286-20-4

> <smiles (First)>


> <Molecular weight>
98.14300537109375

> <name>
7-oxabicyclo[4.1.0]heptane

> <Outcome>
1

> <Molecule (RDKit Mol) (InChI Code)>
InChI=1S/C6H10O/c1-2-4-6-5(3-1)7-6/h5-6H,1-4H2

> <reference>
ECHA

> <molecule_form>
V

$$$$

  Mrv1812 01171911372D          

 23 22  0  0  0  0            999 V2000
    1.0723    1.4041    0.0000 O   0  0  0  0  0  0  0  0  0  0  0  0
    1.7868    1.8166    0.0000 C   0  0  0  0  0  0  0  0  0  0  0  0
    2.5013    1.4041    0.0000 C   0  0  0  0  0  0  0  0  0  0  0  0
    3.2157    1.8166    0.0000 C   0  0  0  0  0  0  0  0  0  0  0  0
    3.9302    1.4041    0.0000 C   0  0  0  0  0  0  0  0  0  0  0  0
    4.6447    1.8166    0.0000 C   0  0  0  0  0  0  0  0  0  0  0  0
    4.6447    2.6416    0.0000 O   0  0  0  0  0  0  0  0  0  0  0  0
    5.3591    1.4041    0.0000 C   0  0  0  0  0  0  0  0  0  0  0  0
    6.0736    1.8166    0.0000 O   0  0  0  0  0  0  0  0  0  0  0  0
    0.3578    1.8166    0.0000 H   0  0  0  0  0  0  0  0  0  0  0  0
    2.1570    2.5539    0.0000 H   0  0  0  0  0  0  0  0  0  0  0  0
    1.4165    2.5539    0.0000 H   0  0  0  0  0  0  0  0  0  0  0  0
    2.1310    0.6669    0.0000 H   0  0  0  0  0  0  0  0  0  0  0  0
    2.8715    0.6669    0.0000 H   0  0  0  0  0  0  0  0  0  0  0  0
    3.5860    2.5539    0.0000 H   0  0  0  0  0  0  0  0  0  0  0  0
    2.8455    2.5539    0.0000 H   0  0  0  0  0  0  0  0  0  0  0  0
    3.5599    0.6669    0.0000 H   0  0  0  0  0  0  0  0  0  0  0  0
    4.3005    0.6669    0.0000 H   0  0  0  0  0  0  0  0  0  0  0  0
    3.9302    2.2291    0.0000 H   0  0  0  0  0  0  0  0  0  0  0  0
    5.0572    3.3561    0.0000 H   0  0  0  0  0  0  0  0  0  0  0  0
    4.9889    0.6669    0.0000 H   0  0  0  0  0  0  0  0  0  0  0  0
    5.7294    0.6669    0.0000 H   0  0  0  0  0  0  0  0  0  0  0  0
    6.7881    1.4041    0.0000 H   0  0  0  0  0  0  0  0  0  0  0  0
  1  2  1  0  0  0  0
  2  3  1  0  0  0  0
  3  4  1  0  0  0  0
  4  5  1  0  0  0  0
  5  6  1  0  0  0  0
  6  7  1  0  0  0  0
  6  8  1  0  0  0  0
  8  9  1  0  0  0  0
  1 10  1  0  0  0  0
  2 11  1  0  0  0  0
  2 12  1  0  0  0  0
  3 13  1  0  0  0  0
  3 14  1  0  0  0  0
  4 15  1  0  0  0  0
  4 16  1  0  0  0  0
  5 17  1  0  0  0  0
  5 18  1  0  0  0  0
  6 19  1  0  0  0  0
  7 20  1  0  0  0  0
  8 21  1  0  0  0  0
  8 22  1  0  0  0  0
  9 23  1  0  0  0  0
M  END
> <id>
3321

> <casrn>
106-69-4

> <smiles (First)>


> <Molecular weight>
134.17356872558594

> <name>
hexane-1,2,6-triol

> <Outcome>
0

> <Molecule (RDKit Mol) (InChI Code)>
InChI=1S/C6H14O3/c7-4-2-1-3-6(9)5-8/h6-9H,1-5H2

> <reference>
ECHA

> <molecule_form>
A

$$$$
