
     RDKit          2D

  5  4  0  0  0  0  0  0  0  0999 V2000
    2.4726   -1.4330    0.0000 C   0  0  0  0  0  0  0  0  0  0  0  0
    2.0601   -0.7185    0.0000 C   0  0  0  0  0  0  0  0  0  0  0  0
    1.2351   -0.7185    0.0000 O   0  0  0  0  0  0  0  0  0  0  0  0
    0.8226   -0.0041    0.0000 C   0  0  0  0  0  0  0  0  0  0  0  0
   -0.0024   -0.0041    0.0000 C   0  0  0  0  0  0  0  0  0  0  0  0
  1  2  1  0
  2  3  1  0
  3  4  1  0
  4  5  1  0
M  END
>  <name>  (1) 
ethoxyethane

>  <Outcome>  (1) 
0

>  <SMILES>  (1) 
CCOCC

$$$$

     RDKit          2D

  7  6  0  0  0  0  0  0  0  0999 V2000
   -0.1914    0.7145    0.0000 C   0  0  0  0  0  0  0  0  0  0  0  0
    0.5230    1.1270    0.0000 O   0  0  0  0  0  0  0  0  0  0  0  0
    1.2375    0.7145    0.0000 C   0  0  0  0  0  0  0  0  0  0  0  0
    1.2375   -0.1105    0.0000 O   0  0  0  0  0  0  0  0  0  0  0  0
    1.9520    1.1270    0.0000 C   0  0  0  0  0  0  0  0  0  0  0  0
    2.6664    0.7145    0.0000 C   0  0  0  0  0  0  0  0  0  0  0  0
    3.3809    1.1270    0.0000 S   0  0  0  0  0  0  0  0  0  0  0  0
  1  2  1  0
  2  3  1  0
  3  4  2  0
  3  5  1  0
  5  6  1  0
  6  7  1  0
M  END
>  <name>  (2) 
methyl 3-sulfanylpropanoate

>  <Outcome>  (2) 
1

>  <SMILES>  (2) 
COC(=O)CCS

$$$$

     RDKit          2D

  9  9  0  0  0  0  0  0  0  0999 V2000
    0.1595    2.6452    0.0000 C   0  0  0  0  0  0  0  0  0  0  0  0
    0.8740    2.2327    0.0000 C   0  0  0  0  0  0  0  0  0  0  0  0
    1.5884    2.6452    0.0000 C   0  0  0  0  0  0  0  0  0  0  0  0
    0.8740    1.4077    0.0000 C   0  0  0  0  0  0  0  0  0  0  0  0
    1.5884    0.9952    0.0000 C   0  0  0  0  0  0  0  0  0  0  0  0
    1.5884    0.1702    0.0000 C   0  0  0  0  0  0  0  0  0  0  0  0
    0.8740   -0.2423    0.0000 C   0  0  0  0  0  0  0  0  0  0  0  0
    0.1595    0.1702    0.0000 C   0  0  0  0  0  0  0  0  0  0  0  0
    0.1595    0.9952    0.0000 C   0  0  0  0  0  0  0  0  0  0  0  0
  1  2  1  0
  2  3  1  0
  2  4  1  0
  4  5  1  0
  5  6  1  0
  6  7  1  0
  7  8  1  0
  8  9  1  0
  4  9  1  0
M  END
>  <name>  (3) 
propan-2-ylcyclohexane

>  <Outcome>  (3) 
0

>  <SMILES>  (3) 
CC(C)C1CCCCC1

$$$$

     RDKit          2D

  6  4  0  0  0  0  0  0  0  0999 V2000
    0.0000    0.0000    0.0000 O   0  0  0  0  0  1  0  0  0  0  0  0
    1.2990    0.7500    0.0000 I   0  0  0  0  0  0  0  0  0  0  0  0
    2.5981    1.5000    0.0000 O   0  0  0  0  0  0  0  0  0  0  0  0
    2.0490   -0.5490    0.0000 O   0  0  0  0  0  0  0  0  0  0  0  0
    0.5490    2.0490    0.0000 O   0  0  0  0  0  0  0  0  0  0  0  0
    3.5981    0.0000    0.0000 Na  0  0  0  0  0 15  0  0  0  0  0  0
  1  2  1  0
  2  3  1  0
  2  4  1  0
  2  5  1  0
M  CHG  6   1  -1   2   3   3  -1   4  -1   5  -1   6   1
M  END
>  <name>  (4) 
sodium;periodate

>  <Outcome>  (4) 
2

>  <SMILES>  (4) 
[Na+].[O-][I+3]([O-])([O-])[O-]

$$$$

     RDKit          2D

 18 19  0  0  0  0  0  0  0  0999 V2000
    2.1171   -0.4531    0.0000 N   0  0  0  0  0  0  0  0  0  0  0  0
    2.1171   -1.2781    0.0000 C   0  0  0  0  0  0  0  0  0  0  0  0
    2.8315   -1.6906    0.0000 C   0  0  0  0  0  0  0  0  0  0  0  0
    2.8315   -2.5156    0.0000 C   0  0  0  0  0  0  0  0  0  0  0  0
    2.1171   -2.9281    0.0000 C   0  0  0  0  0  0  0  0  0  0  0  0
    2.1171   -3.7531    0.0000 N   0  0  0  0  0  0  0  0  0  0  0  0
    1.4026   -4.1656    0.0000 C   0  0  0  0  0  0  0  0  0  0  0  0
    1.4026   -4.9906    0.0000 C   0  0  0  0  0  0  0  0  0  0  0  0
    0.6881   -5.4031    0.0000 C   0  0  0  0  0  0  0  0  0  0  0  0
   -0.0263   -4.9906    0.0000 C   0  0  0  0  0  0  0  0  0  0  0  0
   -0.7408   -5.4031    0.0000 S   0  0  0  0  0  0  0  0  0  0  0  0
   -1.4553   -5.8156    0.0000 N   0  0  0  0  0  0  0  0  0  0  0  0
   -1.1533   -4.6886    0.0000 O   0  0  0  0  0  0  0  0  0  0  0  0
   -0.3283   -6.1175    0.0000 O   0  0  0  0  0  0  0  0  0  0  0  0
   -0.0263   -4.1656    0.0000 C   0  0  0  0  0  0  0  0  0  0  0  0
    0.6881   -3.7531    0.0000 C   0  0  0  0  0  0  0  0  0  0  0  0
    1.4026   -2.5156    0.0000 C   0  0  0  0  0  0  0  0  0  0  0  0
    1.4026   -1.6906    0.0000 C   0  0  0  0  0  0  0  0  0  0  0  0
  1  2  1  0
  2  3  2  0
  3  4  1  0
  4  5  2  0
  5  6  1  0
  6  7  1  0
  7  8  2  0
  8  9  1  0
  9 10  2  0
 10 11  1  0
 11 12  1  0
 11 13  2  0
 11 14  2  0
 10 15  1  0
 15 16  2  0
  7 16  1  0
  5 17  1  0
 17 18  2  0
  2 18  1  0
M  END
>  <name>  (5) 
4-amino-N-(4-aminophenyl)benzene-1-sulfonamide

>  <Outcome>  (5) 
0

>  <SMILES>  (5) 
Nc1ccc(Nc2ccc(S(N)(=O)=O)cc2)cc1

$$$$

     RDKit          2D

  8  8  0  0  0  0  0  0  0  0999 V2000
    1.6511    2.2175    0.0000 C   0  0  0  0  0  0  0  0  0  0  0  0
    1.6511    1.3925    0.0000 C   0  0  0  0  0  0  0  0  0  0  0  0
    0.9366    0.9800    0.0000 N   0  0  0  0  0  0  0  0  0  0  0  0
    0.9366    0.1550    0.0000 C   0  0  0  0  0  0  0  0  0  0  0  0
    0.2222   -0.2575    0.0000 C   0  0  0  0  0  0  0  0  0  0  0  0
   -0.4923    0.1550    0.0000 C   0  0  0  0  0  0  0  0  0  0  0  0
   -0.4923    0.9800    0.0000 C   0  0  0  0  0  0  0  0  0  0  0  0
    0.2222    1.3925    0.0000 C   0  0  0  0  0  0  0  0  0  0  0  0
  1  2  1  0
  2  3  1  0
  3  4  1  0
  4  5  1  0
  5  6  1  0
  6  7  1  0
  7  8  1  0
  3  8  1  0
M  END
>  <name>  (6) 
1-ethylpiperidine

>  <Outcome>  (6) 
1

>  <SMILES>  (6) 
CCN1CCCCC1

$$$$

     RDKit          2D

 31 32  0  0  0  0  0  0  0  0999 V2000
    2.5838   -2.1155    0.0000 C   0  0  0  0  0  0  0  0  0  0  0  0
    1.2135   -2.7256    0.0000 C   0  0  0  0  0  0  0  0  0  0  0  0
    0.7500   -1.2990    0.0000 C   0  0  0  0  0  0  0  0  0  0  0  0
    1.5000    0.0000    0.0000 C   0  0  0  0  0  0  0  0  0  0  0  0
    0.7500    1.2990    0.0000 C   0  0  0  0  0  0  0  0  0  0  0  0
   -0.7500    1.2990    0.0000 C   0  0  0  0  0  0  0  0  0  0  0  0
   -1.5000    0.0000    0.0000 C   0  0  0  0  0  0  0  0  0  0  0  0
   -0.7500   -1.2990    0.0000 C   0  0  0  0  0  0  0  0  0  0  0  0
   -1.2135   -2.7256    0.0000 N   0  0  0  0  0  4  0  0  0  0  0  0
   -0.0000   -3.6073    0.0000 C   0  0  0  0  0  0  0  0  0  0  0  0
   -0.0000   -5.1073    0.0000 C   0  0  0  0  0  0  0  0  0  0  0  0
   -1.2990   -5.8573    0.0000 C   0  0  0  0  0  0  0  0  0  0  0  0
   -1.2990   -7.3573    0.0000 C   0  0  0  0  0  0  0  0  0  0  0  0
   -2.5981   -8.1073    0.0000 C   0  0  0  0  0  0  0  0  0  0  0  0
   -2.5981   -9.6073    0.0000 C   0  0  0  0  0  0  0  0  0  0  0  0
   -1.2990  -10.3573    0.0000 C   0  0  0  0  0  0  0  0  0  0  0  0
   -0.0000   -9.6073    0.0000 C   0  0  0  0  0  0  0  0  0  0  0  0
   -0.0000   -8.1073    0.0000 C   0  0  0  0  0  0  0  0  0  0  0  0
   -1.2990  -11.8573    0.0000 N   0  0  0  0  0  0  0  0  0  0  0  0
   -2.5981  -12.6073    0.0000 C   0  0  0  0  0  0  0  0  0  0  0  0
   -0.0000  -12.6073    0.0000 C   0  0  0  0  0  0  0  0  0  0  0  0
   -0.0000  -14.1073    0.0000 C   0  0  0  0  0  0  0  0  0  0  0  0
    1.2990  -14.8573    0.0000 C   0  0  0  0  0  0  0  0  0  0  0  0
    2.5981  -15.6073    0.0000 N   0  0  0  0  0  0  0  0  0  0  0  0
   -2.6401   -3.1891    0.0000 C   0  0  0  0  0  0  0  0  0  0  0  0
    1.9635   -4.0247    0.0000 C   0  0  0  0  0  0  0  0  0  0  0  0
    3.5981    0.0000    0.0000 O   0  0  0  0  0  0  0  0  0  0  0  0
    4.8971    0.7500    0.0000 S   0  0  0  0  0  0  0  0  0  0  0  0
    4.1471    2.0490    0.0000 O   0  0  0  0  0  0  0  0  0  0  0  0
    5.6471   -0.5490    0.0000 O   0  0  0  0  0  0  0  0  0  0  0  0
    6.1962    1.5000    0.0000 O   0  0  0  0  0  1  0  0  0  0  0  0
  1  2  1  0
  2  3  1  0
  3  4  2  0
  4  5  1  0
  5  6  2  0
  6  7  1  0
  7  8  2  0
  8  9  1  0
  9 10  2  0
 10 11  1  0
 11 12  2  3
 12 13  1  0
 13 14  2  0
 14 15  1  0
 15 16  2  0
 16 17  1  0
 17 18  2  0
 16 19  1  0
 19 20  1  0
 19 21  1  0
 21 22  1  0
 22 23  1  0
 23 24  3  0
  9 25  1  0
  2 26  1  0
 27 28  1  0
 28 29  2  0
 28 30  2  0
 28 31  1  0
 10  2  1  0
  8  3  1  0
 18 13  1  0
M  CHG  2   9   1  31  -1
M  END
>  <name>  (7) 
hydrogen sulfate;3-[N-methyl-4-[2-(1,3,3-trimethylindol-1-ium-2-yl)ethenyl]anilino]propanenitrile

>  <Outcome>  (7) 
2

>  <SMILES>  (7) 
CN(CCC#N)c1ccc(C=CC2=[N+](C)c3ccccc3C2(C)C)cc1.O=S(=O)([O-])O

$$$$

     RDKit          2D

 13 12  0  0  0  0  0  0  0  0999 V2000
    4.4106   -2.1707    0.0000 C   0  0  0  0  0  0  0  0  0  0  0  0
    3.9981   -1.4563    0.0000 O   0  0  0  0  0  0  0  0  0  0  0  0
    3.1731   -1.4563    0.0000 Si  0  0  0  0  0  4  0  0  0  0  0  0
    2.3481   -1.4563    0.0000 C   0  0  0  0  0  0  0  0  0  0  0  0
    1.9356   -0.7418    0.0000 C   0  0  0  0  0  0  0  0  0  0  0  0
    1.1106   -0.7418    0.0000 C   0  0  0  0  0  0  0  0  0  0  0  0
    0.6981   -0.0273    0.0000 N   0  0  0  0  0  0  0  0  0  0  0  0
   -0.1269   -0.0273    0.0000 C   0  0  0  0  0  0  0  0  0  0  0  0
   -0.9519   -0.0273    0.0000 O   0  0  0  0  0  0  0  0  0  0  0  0
    3.1731   -0.6313    0.0000 O   0  0  0  0  0  0  0  0  0  0  0  0
    2.4586   -0.2188    0.0000 C   0  0  0  0  0  0  0  0  0  0  0  0
    3.1731   -2.2813    0.0000 O   0  0  0  0  0  0  0  0  0  0  0  0
    2.4586   -2.6938    0.0000 C   0  0  0  0  0  0  0  0  0  0  0  0
  1  2  1  0
  2  3  1  0
  3  4  1  0
  4  5  1  0
  5  6  1  0
  6  7  1  0
  7  8  2  0
  8  9  2  0
  3 10  1  0
 10 11  1  0
  3 12  1  0
 12 13  1  0
M  END
>  <name>  (8) 
(3-isocyanatopropyl)trimethoxysilane

>  <Outcome>  (8) 
1

>  <SMILES>  (8) 
CO[Si](CCCN=C=O)(OC)OC

$$$$

     RDKit          2D

 10  9  0  0  0  0  0  0  0  0999 V2000
    2.7288   -1.6613    0.0000 C   0  0  0  0  0  0  0  0  0  0  0  0
    2.7288   -0.8363    0.0000 C   0  0  0  0  0  0  0  0  0  0  0  0
    2.0143   -0.4238    0.0000 O   0  0  0  0  0  0  0  0  0  0  0  0
    2.0143    0.4012    0.0000 P   0  0  0  0  0  0  0  0  0  0  0  0
    1.2999    0.8137    0.0000 O   0  0  0  0  0  0  0  0  0  0  0  0
    1.2999    1.6387    0.0000 C   0  0  0  0  0  0  0  0  0  0  0  0
    0.5854    2.0512    0.0000 C   0  0  0  0  0  0  0  0  0  0  0  0
    2.7288    0.8137    0.0000 O   0  0  0  0  0  0  0  0  0  0  0  0
    2.7288    1.6387    0.0000 C   0  0  0  0  0  0  0  0  0  0  0  0
    3.4433    2.0512    0.0000 C   0  0  0  0  0  0  0  0  0  0  0  0
  1  2  1  0
  2  3  1  0
  3  4  1  0
  4  5  1  0
  5  6  1  0
  6  7  1  0
  4  8  1  0
  8  9  1  0
  9 10  1  0
M  END
>  <name>  (9) 
Triethyl phosphite

>  <Outcome>  (9) 
1

>  <SMILES>  (9) 
CCOP(OCC)OCC

$$$$

     RDKit          2D

 17 16  0  0  0  0  0  0  0  0999 V2000
    5.4183   -0.0600    0.0000 C   0  0  0  0  0  0  0  0  0  0  0  0
    4.7038   -0.4725    0.0000 C   0  0  0  0  0  0  0  0  0  0  0  0
    4.7038   -1.2975    0.0000 C   0  0  0  0  0  0  0  0  0  0  0  0
    3.9893   -0.0600    0.0000 C   0  0  0  0  0  0  0  0  0  0  0  0
    3.2748   -0.4725    0.0000 O   0  0  0  0  0  0  0  0  0  0  0  0
    2.5604   -0.0600    0.0000 P   0  0  0  0  0  0  0  0  0  0  0  0
    2.9729    0.6545    0.0000 O   0  0  0  0  0  0  0  0  0  0  0  0
    1.8459    0.3525    0.0000 O   0  0  0  0  0  0  0  0  0  0  0  0
    1.8459    1.1775    0.0000 C   0  0  0  0  0  0  0  0  0  0  0  0
    2.5604    1.5900    0.0000 C   0  0  0  0  0  0  0  0  0  0  0  0
    2.5604    2.4150    0.0000 C   0  0  0  0  0  0  0  0  0  0  0  0
    3.2748    1.1775    0.0000 C   0  0  0  0  0  0  0  0  0  0  0  0
    2.1479   -0.7745    0.0000 O   0  0  0  0  0  0  0  0  0  0  0  0
    1.3229   -0.7745    0.0000 C   0  0  0  0  0  0  0  0  0  0  0  0
    0.9104   -0.0600    0.0000 C   0  0  0  0  0  0  0  0  0  0  0  0
    1.3229    0.6545    0.0000 C   0  0  0  0  0  0  0  0  0  0  0  0
    0.0854   -0.0600    0.0000 C   0  0  0  0  0  0  0  0  0  0  0  0
  1  2  1  0
  2  3  1  0
  2  4  1  0
  4  5  1  0
  5  6  1  0
  6  7  2  0
  6  8  1  0
  8  9  1  0
  9 10  1  0
 10 11  1  0
 10 12  1  0
  6 13  1  0
 13 14  1  0
 14 15  1  0
 15 16  1  0
 15 17  1  0
M  END
>  <name>  (10) 
tris(2-methylpropyl) phosphate

>  <Outcome>  (10) 
0

>  <SMILES>  (10) 
CC(C)COP(=O)(OCC(C)C)OCC(C)C

$$$$

     RDKit          2D

  7  7  0  0  0  0  0  0  0  0999 V2000
    1.5000    0.0000    0.0000 C   0  0  0  0  0  0  0  0  0  0  0  0
    0.7500   -1.2990    0.0000 C   0  0  0  0  0  0  0  0  0  0  0  0
   -0.7500   -1.2990    0.0000 C   0  0  0  0  0  0  0  0  0  0  0  0
   -1.5000    0.0000    0.0000 C   0  0  0  0  0  0  0  0  0  0  0  0
   -0.7500    1.2990    0.0000 C   0  0  0  0  0  0  0  0  0  0  0  0
    0.7500    1.2990    0.0000 C   0  0  0  0  0  0  0  0  0  0  0  0
   -3.0000    0.0000    0.0000 I   0  0  0  0  0  0  0  0  0  0  0  0
  1  2  2  0
  2  3  1  0
  3  4  2  0
  4  5  1  0
  5  6  2  0
  4  7  1  0
  6  1  1  0
M  END
>  <name>  (11) 
iodobenzene

>  <Outcome>  (11) 
2

>  <SMILES>  (11) 
Ic1ccccc1

$$$$

     RDKit          2D

  9  8  0  0  0  0  0  0  0  0999 V2000
    1.6916    1.8046    0.0000 C   0  0  0  0  0  0  0  0  0  0  0  0
    2.4061    1.3921    0.0000 S   0  0  0  0  0  0  0  0  0  0  0  0
    3.1205    1.8046    0.0000 C   0  0  0  0  0  0  0  0  0  0  0  0
    3.8350    1.3921    0.0000 C   0  0  0  0  0  0  0  0  0  0  0  0
    4.5495    1.8046    0.0000 C   0  0  0  0  0  0  0  0  0  0  0  0
    4.5495    2.6296    0.0000 N   0  0  0  0  0  0  0  0  0  0  0  0
    5.2640    1.3921    0.0000 C   0  0  0  0  0  0  0  0  0  0  0  0
    5.9784    1.8046    0.0000 O   0  0  0  0  0  0  0  0  0  0  0  0
    5.2640    0.5671    0.0000 O   0  0  0  0  0  0  0  0  0  0  0  0
  1  2  1  0
  2  3  1  0
  3  4  1  0
  4  5  1  0
  5  6  1  0
  5  7  1  0
  7  8  2  0
  7  9  1  0
M  END
>  <name>  (12) 
(2S)-2-amino-4-(methylsulfanyl)butanoic acid

>  <Outcome>  (12) 
0

>  <SMILES>  (12) 
CSCCC(N)C(=O)O

$$$$

     RDKit          2D

  6  6  0  0  0  0  0  0  0  0999 V2000
    0.7334    2.0578    0.0000 N   0  0  0  0  0  0  0  0  0  0  0  0
    0.7334    1.2328    0.0000 C   0  0  0  0  0  0  0  0  0  0  0  0
    1.4008    0.7479    0.0000 C   0  0  0  0  0  0  0  0  0  0  0  0
    1.1459   -0.0367    0.0000 C   0  0  0  0  0  0  0  0  0  0  0  0
    0.3209   -0.0367    0.0000 C   0  0  0  0  0  0  0  0  0  0  0  0
    0.0659    0.7479    0.0000 C   0  0  0  0  0  0  0  0  0  0  0  0
  1  2  1  0
  2  3  1  0
  3  4  1  0
  4  5  1  0
  5  6  1  0
  2  6  1  0
M  END
>  <name>  (13) 
cyclopentanamine

>  <Outcome>  (13) 
1

>  <SMILES>  (13) 
NC1CCCC1

$$$$

     RDKit          2D

  7  7  0  0  0  0  0  0  0  0999 V2000
    1.4749   -0.3613    0.0000 C   0  0  0  0  0  0  0  0  0  0  0  0
    0.9900    0.3061    0.0000 N   0  0  0  0  0  0  0  0  0  0  0  0
    0.1650    0.3061    0.0000 C   0  0  0  0  0  0  0  0  0  0  0  0
   -0.0900    1.0907    0.0000 C   0  0  0  0  0  0  0  0  0  0  0  0
    0.5775    1.5756    0.0000 C   0  0  0  0  0  0  0  0  0  0  0  0
    1.2449    1.0907    0.0000 C   0  0  0  0  0  0  0  0  0  0  0  0
    2.0295    1.3457    0.0000 O   0  0  0  0  0  0  0  0  0  0  0  0
  1  2  1  0
  2  3  1  0
  3  4  1  0
  4  5  1  0
  5  6  1  0
  2  6  1  0
  6  7  2  0
M  END
>  <name>  (14) 
1-methylpyrrolidin-2-one

>  <Outcome>  (14) 
0

>  <SMILES>  (14) 
CN1CCCC1=O

$$$$

     RDKit          2D

  1  0  0  0  0  0  0  0  0  0999 V2000
    0.0000    0.0000    0.0000 Cd  0  0  0  0  0 15  0  0  0  0  0  0
M  END
>  <name>  (15) 
cadmium

>  <Outcome>  (15) 
2

>  <SMILES>  (15) 
[Cd]

$$$$

     RDKit          2D

 23 25  0  0  0  0  0  0  0  0999 V2000
   -1.8179   -2.0142    0.0000 C   0  0  0  0  0  0  0  0  0  0  0  0
   -1.4054   -1.2997    0.0000 N   0  0  0  0  0  0  0  0  0  0  0  0
   -0.5804   -1.2997    0.0000 N   0  0  0  0  0  0  0  0  0  0  0  0
   -0.1679   -0.5852    0.0000 C   0  0  0  0  0  0  0  0  0  0  0  0
    0.6571   -0.5852    0.0000 C   0  0  0  0  0  0  0  0  0  0  0  0
    1.1420    0.0822    0.0000 N   0  0  0  0  0  0  0  0  0  0  0  0
    0.8870    0.8668    0.0000 C   0  0  0  0  0  0  0  0  0  0  0  0
    1.9266   -0.1727    0.0000 C   0  0  0  0  0  0  0  0  0  0  0  0
    2.6411    0.2398    0.0000 C   0  0  0  0  0  0  0  0  0  0  0  0
    3.3556   -0.1727    0.0000 C   0  0  0  0  0  0  0  0  0  0  0  0
    3.3556   -0.9977    0.0000 C   0  0  0  0  0  0  0  0  0  0  0  0
    2.6411   -1.4102    0.0000 C   0  0  0  0  0  0  0  0  0  0  0  0
    1.9266   -0.9977    0.0000 C   0  0  0  0  0  0  0  0  0  0  0  0
    1.1420   -1.2527    0.0000 C   0  0  0  0  0  0  0  0  0  0  0  0
    1.3051   -2.0614    0.0000 C   0  0  0  0  0  0  0  0  0  0  0  0
    0.5347   -1.8111    0.0000 C   0  0  0  0  0  0  0  0  0  0  0  0
   -1.8179   -0.5852    0.0000 C   0  0  0  0  0  0  0  0  0  0  0  0
   -2.6429   -0.5852    0.0000 C   0  0  0  0  0  0  0  0  0  0  0  0
   -3.0554    0.1292    0.0000 C   0  0  0  0  0  0  0  0  0  0  0  0
   -2.6429    0.8437    0.0000 C   0  0  0  0  0  0  0  0  0  0  0  0
   -3.0554    1.5582    0.0000 C   0  0  0  0  0  0  0  0  0  0  0  0
   -1.8179    0.8437    0.0000 C   0  0  0  0  0  0  0  0  0  0  0  0
   -1.4054    0.1292    0.0000 C   0  0  0  0  0  0  0  0  0  0  0  0
  1  2  2  0
  3  2  1  0
  3  4  2  3
  4  5  1  0
  5  6  1  0
  6  7  1  0
  6  8  1  0
  8  9  2  0
  9 10  1  0
 10 11  2  0
 11 12  1  0
 12 13  2  0
  8 13  1  0
 13 14  1  0
  5 14  1  0
 14 15  1  0
 14 16  1  0
  2 17  1  0
 17 18  2  0
 18 19  1  0
 19 20  2  0
 20 21  1  0
 20 22  1  0
 22 23  2  0
 17 23  1  0
M  CHG  1   2   1
M  END
>  <name>  (16) 
1,3,3-trimethyl-2-[(1E)-[2-methyl-2-(4-methylphenyl)hydrazin-1-ylidene]methyl]-3H-indol-1-ium chloride

>  <Outcome>  (16) 
1

>  <SMILES>  (16) 
C=[N+](N=CC1N(C)c2ccccc2C1(C)C)c1ccc(C)cc1

$$$$

     RDKit          2D

 14 13  0  0  0  0  0  0  0  0999 V2000
    4.7586    3.5724    0.0000 C   0  0  0  0  0  0  0  0  0  0  0  0
    5.4730    3.9849    0.0000 C   0  0  0  0  0  0  0  0  0  0  0  0
    6.1875    3.5724    0.0000 C   0  0  0  0  0  0  0  0  0  0  0  0
    6.9020    3.9849    0.0000 C   0  0  0  0  0  0  0  0  0  0  0  0
    7.6164    3.5724    0.0000 C   0  0  0  0  0  0  0  0  0  0  0  0
    8.3309    3.9849    0.0000 C   0  0  0  0  0  0  0  0  0  0  0  0
    9.0454    3.5724    0.0000 C   0  0  0  0  0  0  0  0  0  0  0  0
    9.7599    3.9849    0.0000 C   0  0  0  0  0  0  0  0  0  0  0  0
   10.4743    3.5724    0.0000 C   0  0  0  0  0  0  0  0  0  0  0  0
   11.1888    3.9849    0.0000 C   0  0  0  0  0  0  0  0  0  0  0  0
   11.9033    3.5724    0.0000 C   0  0  0  0  0  0  0  0  0  0  0  0
   12.6177    3.9849    0.0000 C   0  0  0  0  0  0  0  0  0  0  0  0
   13.3322    3.5724    0.0000 C   0  0  0  0  0  0  0  0  0  0  0  0
   14.0467    3.9849    0.0000 C   0  0  0  0  0  0  0  0  0  0  0  0
  1  2  1  0
  2  3  1  0
  3  4  1  0
  4  5  1  0
  5  6  1  0
  6  7  1  0
  7  8  1  0
  8  9  1  0
  9 10  1  0
 10 11  1  0
 11 12  1  0
 12 13  1  0
 13 14  1  0
M  END
>  <name>  (17) 
tetradecane

>  <Outcome>  (17) 
0

>  <SMILES>  (17) 
CCCCCCCCCCCCCC

$$$$

     RDKit          2D

  9  8  0  0  0  0  0  0  0  0999 V2000
    3.8571    0.1071    0.0000 C   0  0  0  0  0  0  0  0  0  0  0  0
    3.0321    0.1071    0.0000 C   0  0  0  0  0  0  0  0  0  0  0  0
    2.6196    0.8216    0.0000 O   0  0  0  0  0  0  0  0  0  0  0  0
    1.7946    0.8216    0.0000 P   0  0  0  0  0  0  0  0  0  0  0  0
    1.7946    1.6466    0.0000 S   0  0  0  0  0  0  0  0  0  0  0  0
    1.7946   -0.0034    0.0000 S   0  0  0  0  0  0  0  0  0  0  0  0
    0.9696    0.8216    0.0000 O   0  0  0  0  0  0  0  0  0  0  0  0
    0.5571    1.5361    0.0000 C   0  0  0  0  0  0  0  0  0  0  0  0
   -0.2679    1.5361    0.0000 C   0  0  0  0  0  0  0  0  0  0  0  0
  1  2  1  0
  2  3  1  0
  3  4  1  0
  4  5  1  0
  4  6  2  0
  4  7  1  0
  7  8  1  0
  8  9  1  0
M  END
>  <name>  (18) 
O,O-Diethyl dithiophosphate

>  <Outcome>  (18) 
1

>  <SMILES>  (18) 
CCOP(=S)(S)OCC

$$$$

     RDKit          2D

 13 13  0  0  0  0  0  0  0  0999 V2000
    3.0000    0.0000    0.0000 C   0  0  0  0  0  0  0  0  0  0  0  0
    1.5000    0.0000    0.0000 C   0  0  0  0  0  0  0  0  0  0  0  0
    0.7500   -1.2990    0.0000 C   0  0  0  0  0  0  0  0  0  0  0  0
   -0.7500   -1.2990    0.0000 C   0  0  0  0  0  0  0  0  0  0  0  0
   -1.5000    0.0000    0.0000 C   0  0  0  0  0  0  0  0  0  0  0  0
   -0.7500    1.2990    0.0000 C   0  0  0  0  0  0  0  0  0  0  0  0
    0.7500    1.2990    0.0000 C   0  0  0  0  0  0  0  0  0  0  0  0
   -3.0000    0.0000    0.0000 S   0  0  0  0  0  0  0  0  0  0  0  0
   -3.0000    1.5000    0.0000 O   0  0  0  0  0  0  0  0  0  0  0  0
   -3.0000   -1.5000    0.0000 O   0  0  0  0  0  0  0  0  0  0  0  0
   -4.5000    0.0000    0.0000 C   0  0  0  0  0  0  0  0  0  0  0  0
   -5.2500   -1.2990    0.0000 I   0  0  0  0  0  0  0  0  0  0  0  0
   -5.2500    1.2990    0.0000 I   0  0  0  0  0  0  0  0  0  0  0  0
  1  2  1  0
  2  3  2  0
  3  4  1  0
  4  5  2  0
  5  6  1  0
  6  7  2  0
  5  8  1  0
  8  9  2  0
  8 10  2  0
  8 11  1  0
 11 12  1  0
 11 13  1  0
  7  2  1  0
M  END
>  <name>  (19) 
1-(diiodomethylsulfonyl)-4-methylbenzene

>  <Outcome>  (19) 
2

>  <SMILES>  (19) 
Cc1ccc(S(=O)(=O)C(I)I)cc1

$$$$

     RDKit          2D

 14 14  0  0  0  0  0  0  0  0999 V2000
    0.7145    2.0625    0.0000 C   0  0  0  0  0  0  0  0  0  0  0  0
    0.7145    1.2375    0.0000 N   0  0  0  0  0  0  0  0  0  0  0  0
    1.4289    0.8250    0.0000 C   0  0  0  0  0  0  0  0  0  0  0  0
    2.1434    1.2375    0.0000 N   0  0  0  0  0  0  0  0  0  0  0  0
    1.4289   -0.0000    0.0000 C   0  0  0  0  0  0  0  0  0  0  0  0
    2.1434   -0.4125    0.0000 N   0  0  0  0  0  0  0  0  0  0  0  0
    2.1434   -1.2375    0.0000 C   0  0  0  0  0  0  0  0  0  0  0  0
    2.8579   -1.6500    0.0000 O   0  0  0  0  0  0  0  0  0  0  0  0
    0.7145   -0.4125    0.0000 C   0  0  0  0  0  0  0  0  0  0  0  0
    0.7145   -1.2375    0.0000 O   0  0  0  0  0  0  0  0  0  0  0  0
   -0.0000    0.0000    0.0000 N   0  0  0  0  0  0  0  0  0  0  0  0
   -0.7145   -0.4125    0.0000 C   0  0  0  0  0  0  0  0  0  0  0  0
   -0.0000    0.8250    0.0000 C   0  0  0  0  0  0  0  0  0  0  0  0
   -0.7145    1.2375    0.0000 O   0  0  0  0  0  0  0  0  0  0  0  0
  1  2  1  0
  2  3  1  0
  3  4  1  0
  3  5  2  0
  5  6  1  0
  6  7  1  0
  7  8  2  0
  5  9  1  0
  9 10  2  0
  9 11  1  0
 11 12  1  0
 11 13  1  0
  2 13  1  0
 13 14  2  0
M  END
>  <name>  (20) 
N-(6-amino-1,3-dimethyl-2,4-dioxo-1,2,3,4-tetrahydropyrimidin-5-yl)formamide

>  <Outcome>  (20) 
0

>  <SMILES>  (20) 
Cn1c(N)c(NC=O)c(=O)n(C)c1=O

$$$$

     RDKit          2D

  8  8  0  0  0  0  0  0  0  0999 V2000
    0.7145    2.0625    0.0000 C   0  0  0  0  0  0  0  0  0  0  0  0
    0.7145    1.2375    0.0000 C   0  0  0  0  0  0  0  0  0  0  0  0
    1.4289    0.8250    0.0000 C   0  0  0  0  0  0  0  0  0  0  0  0
    1.4289    0.0000    0.0000 C   0  0  0  0  0  0  0  0  0  0  0  0
    0.7145   -0.4125    0.0000 C   0  0  0  0  0  0  0  0  0  0  0  0
   -0.0000    0.0000    0.0000 C   0  0  0  0  0  0  0  0  0  0  0  0
   -0.7145   -0.4125    0.0000 C   0  0  0  0  0  0  0  0  0  0  0  0
   -0.0000    0.8250    0.0000 C   0  0  0  0  0  0  0  0  0  0  0  0
  1  2  1  0
  2  3  2  0
  3  4  1  0
  4  5  2  0
  5  6  1  0
  6  7  1  0
  6  8  2  0
  2  8  1  0
M  END
>  <name>  (21) 
1,3-xylene

>  <Outcome>  (21) 
0

>  <SMILES>  (21) 
Cc1cccc(C)c1

$$$$

     RDKit          2D

  9  8  0  0  0  0  0  0  0  0999 V2000
    0.8070   -1.4045    0.0000 C   0  0  0  0  0  0  0  0  0  0  0  0
    1.2195   -2.1190    0.0000 C   0  0  0  0  0  0  0  0  0  0  0  0
    2.0445   -2.1190    0.0000 C   0  0  0  0  0  0  0  0  0  0  0  0
    2.4570   -2.8335    0.0000 C   0  0  0  0  0  0  0  0  0  0  0  0
    3.2820   -2.8335    0.0000 C   0  0  0  0  0  0  0  0  0  0  0  0
    3.6945   -3.5479    0.0000 C   0  0  0  0  0  0  0  0  0  0  0  0
    4.5195   -3.5479    0.0000 O   0  0  0  0  0  0  0  0  0  0  0  0
    3.6945   -2.1190    0.0000 C   0  0  0  0  0  0  0  0  0  0  0  0
    4.5195   -2.1190    0.0000 C   0  0  0  0  0  0  0  0  0  0  0  0
  1  2  1  0
  2  3  1  0
  3  4  1  0
  4  5  1  0
  5  6  1  0
  6  7  2  0
  5  8  1  0
  8  9  1  0
M  END
>  <name>  (22) 
2-ethylhexanal

>  <Outcome>  (22) 
0

>  <SMILES>  (22) 
CCCCC(C=O)CC

$$$$

     RDKit          2D

  5  4  0  0  0  0  0  0  0  0999 V2000
    0.0000    0.0000    0.0000 O   0  0  0  0  0  0  0  0  0  0  0  0
    1.2990    0.7500    0.0000 Cl  0  0  0  0  0  0  0  0  0  0  0  0
    2.0490   -0.5490    0.0000 O   0  0  0  0  0  0  0  0  0  0  0  0
    0.5490    2.0490    0.0000 O   0  0  0  0  0  0  0  0  0  0  0  0
    2.5981    1.5000    0.0000 O   0  0  0  0  0  0  0  0  0  0  0  0
  1  2  1  0
  2  3  1  0
  2  4  1  0
  2  5  1  0
M  CHG  4   2   3   3  -1   4  -1   5  -1
M  END
>  <name>  (23) 
perchloric acid

>  <Outcome>  (23) 
2

>  <SMILES>  (23) 
[O-][Cl+3]([O-])([O-])O

$$$$

     RDKit          2D

 12 12  0  0  0  0  0  0  0  0999 V2000
   -1.0338   -0.9060    0.0000 C   0  0  0  0  0  0  0  0  0  0  0  0
   -0.3193   -0.4935    0.0000 C   0  0  0  0  0  0  0  0  0  0  0  0
    0.3951   -0.9060    0.0000 C   0  0  0  0  0  0  0  0  0  0  0  0
    0.3951   -1.7310    0.0000 O   0  0  0  0  0  0  0  0  0  0  0  0
    1.1096   -0.4935    0.0000 O   0  0  0  0  0  0  0  0  0  0  0  0
    1.8241   -0.9060    0.0000 C   0  0  0  0  0  0  0  0  0  0  0  0
    2.5385   -0.4935    0.0000 C   0  0  0  0  0  0  0  0  0  0  0  0
    3.2530   -0.9060    0.0000 C   0  0  0  0  0  0  0  0  0  0  0  0
    3.9675   -0.4935    0.0000 C   0  0  0  0  0  0  0  0  0  0  0  0
    3.9675    0.3315    0.0000 C   0  0  0  0  0  0  0  0  0  0  0  0
    3.2530    0.7440    0.0000 C   0  0  0  0  0  0  0  0  0  0  0  0
    2.5385    0.3315    0.0000 C   0  0  0  0  0  0  0  0  0  0  0  0
  1  2  1  0
  2  3  1  0
  3  4  2  0
  3  5  1  0
  5  6  1  0
  6  7  1  0
  8  7  2  0
  9  8  1  0
 10  9  2  0
 11 10  1  0
 12 11  2  0
  7 12  1  0
M  END
>  <name>  (24) 
Benzyl propanoate

>  <Outcome>  (24) 
0

>  <SMILES>  (24) 
CCC(=O)OCc1ccccc1

$$$$

     RDKit          2D

  8  8  0  0  0  0  0  0  0  0999 V2000
    0.7145    2.0625    0.0000 F   0  0  0  0  0  0  0  0  0  0  0  0
    0.7145    1.2375    0.0000 C   0  0  0  0  0  0  0  0  0  0  0  0
    1.4289    0.8250    0.0000 C   0  0  0  0  0  0  0  0  0  0  0  0
    1.4289   -0.0000    0.0000 C   0  0  0  0  0  0  0  0  0  0  0  0
    0.7145   -0.4125    0.0000 C   0  0  0  0  0  0  0  0  0  0  0  0
    0.7145   -1.2375    0.0000 Br  0  0  0  0  0  0  0  0  0  0  0  0
   -0.0000    0.0000    0.0000 C   0  0  0  0  0  0  0  0  0  0  0  0
   -0.0000    0.8250    0.0000 C   0  0  0  0  0  0  0  0  0  0  0  0
  1  2  1  0
  2  3  2  0
  3  4  1  0
  4  5  2  0
  5  6  1  0
  5  7  1  0
  7  8  2  0
  2  8  1  0
M  END
>  <name>  (25) 
1-bromo-4-fluorobenzene

>  <Outcome>  (25) 
1

>  <SMILES>  (25) 
Fc1ccc(Br)cc1

$$$$

     RDKit          2D

 13 12  0  0  0  0  0  0  0  0999 V2000
    0.7213   -2.9947    0.0000 C   0  0  0  0  0  0  0  0  0  0  0  0
    1.2614   -3.6183    0.0000 C   0  0  0  0  0  0  0  0  0  0  0  0
    0.9914   -4.3979    0.0000 C   0  0  0  0  0  0  0  0  0  0  0  0
    2.0716   -3.4624    0.0000 C   0  0  0  0  0  0  0  0  0  0  0  0
    2.3416   -2.6828    0.0000 O   0  0  0  0  0  0  0  0  0  0  0  0
    2.6116   -4.0860    0.0000 O   0  0  0  0  0  0  0  0  0  0  0  0
    3.4218   -3.9301    0.0000 C   0  0  0  0  0  0  0  0  0  0  0  0
    3.9619   -4.5538    0.0000 C   0  0  0  0  0  0  0  0  0  0  0  0
    4.7720   -4.3979    0.0000 N   0  0  0  0  0  0  0  0  0  0  0  0
    5.3121   -5.0215    0.0000 C   0  0  0  0  0  0  0  0  0  0  0  0
    6.1222   -4.8656    0.0000 C   0  0  0  0  0  0  0  0  0  0  0  0
    5.0421   -3.6183    0.0000 C   0  0  0  0  0  0  0  0  0  0  0  0
    5.8522   -3.4624    0.0000 C   0  0  0  0  0  0  0  0  0  0  0  0
  1  2  2  0
  2  3  1  0
  2  4  1  0
  4  5  2  0
  4  6  1  0
  6  7  1  0
  7  8  1  0
  8  9  1  0
  9 10  1  0
 10 11  1  0
  9 12  1  0
 12 13  1  0
M  END
>  <name>  (26) 
2-(diethylamino)ethyl 2-methylprop-2-enoate

>  <Outcome>  (26) 
1

>  <SMILES>  (26) 
C=C(C)C(=O)OCCN(CC)CC

$$$$

     RDKit          2D

  2  0  0  0  0  0  0  0  0  0999 V2000
    0.0000    0.0000    0.0000 Li  0  0  0  0  0 15  0  0  0  0  0  0
    1.0000    0.0000    0.0000 O   0  0  0  0  0  1  0  0  0  0  0  0
M  CHG  2   1   1   2  -1
M  END
>  <name>  (27) 
lithium;hydroxide

>  <Outcome>  (27) 
2

>  <SMILES>  (27) 
[Li+].[OH-]

$$$$

     RDKit          2D

 12 10  0  0  0  0  0  0  0  0999 V2000
    0.0000    0.0000    0.0000 C   0  0  0  0  0  0  0  0  0  0  0  0
    1.2990    0.7500    0.0000 C   0  0  0  0  0  0  0  0  0  0  0  0
    1.2990    2.2500    0.0000 C   0  0  0  0  0  0  0  0  0  0  0  0
    2.5981    3.0000    0.0000 C   0  0  0  0  0  0  0  0  0  0  0  0
    3.8971    2.2500    0.0000 O   0  0  0  0  0  0  0  0  0  0  0  0
    2.5981    4.5000    0.0000 O   0  0  0  0  0  1  0  0  0  0  0  0
    2.5981    0.0000    0.0000 C   0  0  0  0  0  0  0  0  0  0  0  0
    2.5981   -1.5000    0.0000 C   0  0  0  0  0  0  0  0  0  0  0  0
    1.0981   -1.5000    0.0000 C   0  0  0  0  0  0  0  0  0  0  0  0
    4.0981   -1.5000    0.0000 C   0  0  0  0  0  0  0  0  0  0  0  0
    2.5981   -3.0000    0.0000 C   0  0  0  0  0  0  0  0  0  0  0  0
    5.0981    0.0000    0.0000 K   0  0  0  0  0 15  0  0  0  0  0  0
  1  2  1  0
  2  3  1  0
  3  4  1  0
  4  5  2  0
  4  6  1  0
  2  7  1  0
  7  8  1  0
  8  9  1  0
  8 10  1  0
  8 11  1  0
M  CHG  2   6  -1  12   1
M  END
>  <name>  (28) 
potassium;3,5,5-trimethylhexanoate

>  <Outcome>  (28) 
2

>  <SMILES>  (28) 
CC(CC(=O)[O-])CC(C)(C)C.[K+]

$$$$

     RDKit          2D

  9  8  0  0  0  0  0  0  0  0999 V2000
    1.7605    1.8396    0.0000 C   0  0  0  0  0  0  0  0  0  0  0  0
    2.4750    1.4271    0.0000 C   0  0  0  0  0  0  0  0  0  0  0  0
    3.1895    1.8396    0.0000 C   0  0  0  0  0  0  0  0  0  0  0  0
    3.9040    1.4271    0.0000 O   0  0  0  0  0  0  0  0  0  0  0  0
    4.6184    1.8396    0.0000 C   0  0  0  0  0  0  0  0  0  0  0  0
    4.6184    2.6646    0.0000 O   0  0  0  0  0  0  0  0  0  0  0  0
    5.3329    1.4271    0.0000 C   0  0  0  0  0  0  0  0  0  0  0  0
    6.0474    1.8396    0.0000 C   0  0  0  0  0  0  0  0  0  0  0  0
    5.3329    0.6021    0.0000 C   0  0  0  0  0  0  0  0  0  0  0  0
  1  2  2  0
  2  3  1  0
  3  4  1  0
  4  5  1  0
  5  6  2  0
  5  7  1  0
  7  8  2  0
  7  9  1  0
M  END
>  <name>  (29) 
prop-2-en-1-yl 2-methylprop-2-enoate

>  <Outcome>  (29) 
1

>  <SMILES>  (29) 
C=CCOC(=O)C(=C)C

$$$$

     RDKit          2D

 15 14  0  0  0  0  0  0  0  0999 V2000
    1.7899    1.8870    0.0000 C   0  0  0  0  0  0  0  0  0  0  0  0
    2.5044    1.4745    0.0000 C   0  0  0  0  0  0  0  0  0  0  0  0
    3.2188    1.8870    0.0000 C   0  0  0  0  0  0  0  0  0  0  0  0
    3.9333    1.4745    0.0000 C   0  0  0  0  0  0  0  0  0  0  0  0
    4.6478    1.8870    0.0000 C   0  0  0  0  0  0  0  0  0  0  0  0
    4.6478    2.7120    0.0000 C   0  0  0  0  0  0  0  0  0  0  0  0
    5.3622    3.1245    0.0000 C   0  0  0  0  0  0  0  0  0  0  0  0
    5.3622    1.4745    0.0000 C   0  0  0  0  0  0  0  0  0  0  0  0
    5.3622    0.6495    0.0000 O   0  0  0  0  0  0  0  0  0  0  0  0
    6.0767    1.8870    0.0000 O   0  0  0  0  0  0  0  0  0  0  0  0
    6.7912    1.4745    0.0000 O   0  0  0  0  0  0  0  0  0  0  0  0
    7.5056    1.8870    0.0000 C   0  0  0  0  0  0  0  0  0  0  0  0
    8.2201    2.2995    0.0000 C   0  0  0  0  0  0  0  0  0  0  0  0
    7.9181    1.1725    0.0000 C   0  0  0  0  0  0  0  0  0  0  0  0
    7.0931    2.6015    0.0000 C   0  0  0  0  0  0  0  0  0  0  0  0
  1  2  1  0
  2  3  1  0
  3  4  1  0
  4  5  1  0
  5  6  1  0
  6  7  1  0
  5  8  1  0
  8  9  2  0
  8 10  1  0
 10 11  1  0
 11 12  1  0
 12 13  1  0
 12 14  1  0
 12 15  1  0
M  END
>  <name>  (30) 
tert-butyl 2-ethylhexaneperoxoate

>  <Outcome>  (30) 
0

>  <SMILES>  (30) 
CCCCC(CC)C(=O)OOC(C)(C)C

$$$$

     RDKit          2D

  5  4  0  0  0  0  0  0  0  0999 V2000
    0.8538   -0.7298    0.0000 C   0  0  0  0  0  0  0  0  0  0  0  0
    0.8538    0.0952    0.0000 C   0  0  0  0  0  0  0  0  0  0  0  0
    0.8538    0.9202    0.0000 C   0  0  0  0  0  0  0  0  0  0  0  0
    1.6788    0.0952    0.0000 C   0  0  0  0  0  0  0  0  0  0  0  0
    0.0288    0.0952    0.0000 O   0  0  0  0  0  0  0  0  0  0  0  0
  1  2  1  0
  2  3  1  0
  2  4  1  0
  2  5  1  0
M  END
>  <name>  (31) 
2-methylpropan-2-ol

>  <Outcome>  (31) 
0

>  <SMILES>  (31) 
CC(C)(C)O

$$$$

     RDKit          2D

  5  5  0  0  0  0  0  0  0  0999 V2000
    0.4980    2.6013    0.0000 C   0  0  0  0  0  0  0  0  0  0  0  0
    0.4980    1.7763    0.0000 C   0  0  0  0  0  0  0  0  0  0  0  0
    0.4980    0.9513    0.0000 C   0  0  0  0  0  0  0  0  0  0  0  0
    0.9105    0.2368    0.0000 C   0  0  0  0  0  0  0  0  0  0  0  0
    0.0855    0.2368    0.0000 C   0  0  0  0  0  0  0  0  0  0  0  0
  1  2  3  0
  2  3  1  0
  3  4  1  0
  4  5  1  0
  3  5  1  0
M  END
>  <name>  (32) 
ethynylcyclopropane

>  <Outcome>  (32) 
0

>  <SMILES>  (32) 
C#CC1CC1

$$$$

     RDKit          2D

  9  8  0  0  0  0  0  0  0  0999 V2000
    2.5385    0.6265    0.0000 C   0  0  0  0  0  0  0  0  0  0  0  0
    1.8240    0.2140    0.0000 O   0  0  0  0  0  0  0  0  0  0  0  0
    1.1096    0.6265    0.0000 Si  0  0  0  0  0  4  0  0  0  0  0  0
    0.3951    1.0390    0.0000 O   0  0  0  0  0  0  0  0  0  0  0  0
   -0.3194    0.6265    0.0000 C   0  0  0  0  0  0  0  0  0  0  0  0
    1.5221    1.3410    0.0000 O   0  0  0  0  0  0  0  0  0  0  0  0
    1.1096    2.0555    0.0000 C   0  0  0  0  0  0  0  0  0  0  0  0
    0.6971   -0.0879    0.0000 O   0  0  0  0  0  0  0  0  0  0  0  0
   -0.1279   -0.0879    0.0000 C   0  0  0  0  0  0  0  0  0  0  0  0
  1  2  1  0
  2  3  1  0
  3  4  1  0
  4  5  1  0
  3  6  1  0
  6  7  1  0
  3  8  1  0
  8  9  1  0
M  END
>  <name>  (33) 
tetramethyl silicate

>  <Outcome>  (33) 
1

>  <SMILES>  (33) 
CO[Si](OC)(OC)OC

$$$$

     RDKit          2D

  8  7  0  0  0  0  0  0  0  0999 V2000
    0.8250   -1.6500    0.0000 F   0  0  0  0  0  0  0  0  0  0  0  0
    0.8250   -0.8250    0.0000 C   0  0  0  0  0  0  0  0  0  0  0  0
    1.6500   -0.8250    0.0000 F   0  0  0  0  0  0  0  0  0  0  0  0
    0.0000   -0.8250    0.0000 F   0  0  0  0  0  0  0  0  0  0  0  0
    0.8250    0.0000    0.0000 C   0  0  0  0  0  0  0  0  0  0  0  0
    0.8250    0.8250    0.0000 F   0  0  0  0  0  0  0  0  0  0  0  0
    1.6500   -0.0000    0.0000 F   0  0  0  0  0  0  0  0  0  0  0  0
    0.0000    0.0000    0.0000 F   0  0  0  0  0  0  0  0  0  0  0  0
  1  2  1  0
  2  3  1  0
  2  4  1  0
  2  5  1  0
  5  6  1  0
  5  7  1  0
  5  8  1  0
M  END
>  <name>  (34) 
hexafluoroethane

>  <Outcome>  (34) 
0

>  <SMILES>  (34) 
FC(F)(F)C(F)(F)F

$$$$

     RDKit          2D

  7  6  0  0  0  0  0  0  0  0999 V2000
    1.2659    2.2561    0.0000 C   0  0  0  0  0  0  0  0  0  0  0  0
    0.8534    1.5416    0.0000 C   0  0  0  0  0  0  0  0  0  0  0  0
    0.0284    1.5416    0.0000 O   0  0  0  0  0  0  0  0  0  0  0  0
    1.2659    0.8272    0.0000 C   0  0  0  0  0  0  0  0  0  0  0  0
    0.8534    0.1127    0.0000 N   0  0  0  0  0  0  0  0  0  0  0  0
    1.2659   -0.6018    0.0000 C   0  0  0  0  0  0  0  0  0  0  0  0
    0.0284    0.1127    0.0000 C   0  0  0  0  0  0  0  0  0  0  0  0
  1  2  1  0
  2  3  1  0
  2  4  1  0
  4  5  1  0
  5  6  1  0
  5  7  1  0
M  END
>  <name>  (35) 
1-(dimethylamino)propan-2-ol

>  <Outcome>  (35) 
1

>  <SMILES>  (35) 
CC(O)CN(C)C

$$$$

     RDKit          2D

  6  5  0  0  0  0  0  0  0  0999 V2000
    1.2107    2.1392    0.0000 C   0  0  0  0  0  0  0  0  0  0  0  0
    0.7982    1.4247    0.0000 C   0  0  0  0  0  0  0  0  0  0  0  0
    1.2107    0.7102    0.0000 C   0  0  0  0  0  0  0  0  0  0  0  0
    0.7982   -0.0043    0.0000 N   0  0  0  0  0  0  0  0  0  0  0  0
    1.2107   -0.7187    0.0000 C   0  0  0  0  0  0  0  0  0  0  0  0
   -0.0268   -0.0043    0.0000 C   0  0  0  0  0  0  0  0  0  0  0  0
  1  2  1  0
  2  3  1  0
  3  4  1  0
  4  5  1  0
  4  6  1  0
M  END
>  <name>  (36) 
dimethyl(propyl)amine

>  <Outcome>  (36) 
1

>  <SMILES>  (36) 
CCCN(C)C

$$$$

     RDKit          2D

 25 19  0  0  0  0  0  0  0  0999 V2000
    0.0000    0.0000    0.0000 C   0  0  0  0  0  0  0  0  0  0  0  0
    1.2990    0.7500    0.0000 C   0  0  0  0  0  0  0  0  0  0  0  0
    2.5981   -0.0000    0.0000 N   0  0  0  0  0  0  0  0  0  0  0  0
    3.8971    0.7500    0.0000 C   0  0  0  0  0  0  0  0  0  0  0  0
    5.1962   -0.0000    0.0000 C   0  0  0  0  0  0  0  0  0  0  0  0
    5.1962   -1.5000    0.0000 O   0  0  0  0  0  0  0  0  0  0  0  0
    6.4952    0.7500    0.0000 O   0  0  0  0  0  1  0  0  0  0  0  0
    2.5981   -1.5000    0.0000 C   0  0  0  0  0  0  0  0  0  0  0  0
    1.2990   -2.2500    0.0000 C   0  0  0  0  0  0  0  0  0  0  0  0
    0.0000   -1.5000    0.0000 O   0  0  0  0  0  0  0  0  0  0  0  0
    1.2990   -3.7500    0.0000 O   0  0  0  0  0  1  0  0  0  0  0  0
   -1.2990    0.7500    0.0000 N   0  0  0  0  0  0  0  0  0  0  0  0
   -2.5981    0.0000    0.0000 C   0  0  0  0  0  0  0  0  0  0  0  0
   -3.8971    0.7500    0.0000 C   0  0  0  0  0  0  0  0  0  0  0  0
   -3.8971    2.2500    0.0000 O   0  0  0  0  0  0  0  0  0  0  0  0
   -5.1962    0.0000    0.0000 O   0  0  0  0  0  1  0  0  0  0  0  0
   -1.2990    2.2500    0.0000 C   0  0  0  0  0  0  0  0  0  0  0  0
    0.0000    3.0000    0.0000 C   0  0  0  0  0  0  0  0  0  0  0  0
    1.2990    2.2500    0.0000 O   0  0  0  0  0  0  0  0  0  0  0  0
    0.0000    4.5000    0.0000 O   0  0  0  0  0  1  0  0  0  0  0  0
    0.0000    5.5000    0.0000 O   0  0  0  0  0  0  0  0  0  0  0  0
    0.0000    6.5000    0.0000 O   0  0  0  0  0  0  0  0  0  0  0  0
    0.0000    7.5000    0.0000 Na  0  0  0  0  0 15  0  0  0  0  0  0
    0.0000    8.5000    0.0000 Na  0  0  0  0  0 15  0  0  0  0  0  0
    7.4952    0.0000    0.0000 Mn  0  0  0  0  0 15  0  0  0  0  0  0
  1  2  1  0
  2  3  1  0
  3  4  1  0
  4  5  1  0
  5  6  2  0
  5  7  1  0
  3  8  1  0
  8  9  1  0
  9 10  2  0
  9 11  1  0
  1 12  1  0
 12 13  1  0
 13 14  1  0
 14 15  2  0
 14 16  1  0
 12 17  1  0
 17 18  1  0
 18 19  2  0
 18 20  1  0
M  CHG  7   7  -1  11  -1  16  -1  20  -1  23   1  24   1  25   2
M  END
>  <name>  (37) 
disodium;2-[2-[bis(carboxylatomethyl)amino]ethyl-(carboxylatomethyl)amino]acetate;manganese(2+);dihydrate

>  <Outcome>  (37) 
2

>  <SMILES>  (37) 
O.O.O=C([O-])CN(CCN(CC(=O)[O-])CC(=O)[O-])CC(=O)[O-].[Mn+2].[Na+].[Na+]

$$$$

     RDKit          2D

  4  3  0  0  0  0  0  0  0  0999 V2000
    0.0000    0.0000    0.0000 O   0  0  0  0  0  0  0  0  0  0  0  0
    1.2990    0.7500    0.0000 Cr  0  0  0  0  0  6  0  0  0  0  0  0
    2.5981   -0.0000    0.0000 O   0  0  0  0  0  0  0  0  0  0  0  0
    1.2990    2.2500    0.0000 O   0  0  0  0  0  0  0  0  0  0  0  0
  1  2  2  0
  2  3  2  0
  2  4  2  0
M  END
>  <name>  (38) 
trioxochromium

>  <Outcome>  (38) 
2

>  <SMILES>  (38) 
O=[Cr](=O)=O

$$$$

     RDKit          2D

  6  5  0  0  0  0  0  0  0  0999 V2000
    0.0000    0.0000    0.0000 C   0  0  0  0  0  0  0  0  0  0  0  0
    1.2990    0.7500    0.0000 C   0  0  0  0  0  0  0  0  0  0  0  0
    2.5981   -0.0000    0.0000 C   0  0  0  0  0  0  0  0  0  0  0  0
    3.8971    0.7500    0.0000 C   0  0  0  0  0  0  0  0  0  0  0  0
    5.1962   -0.0000    0.0000 C   0  0  0  0  0  0  0  0  0  0  0  0
    6.4952    0.7500    0.0000 S   0  0  0  0  0  0  0  0  0  0  0  0
  1  2  1  0
  2  3  1  0
  3  4  1  0
  4  5  1  0
  5  6  1  0
M  END
>  <name>  (39) 
pentane-1-thiol

>  <Outcome>  (39) 
2

>  <SMILES>  (39) 
CCCCCS

$$$$

     RDKit          2D

 12 12  0  0  0  0  0  0  0  0999 V2000
   -0.0558    2.5556    0.0000 C   0  0  0  0  0  0  0  0  0  0  0  0
    0.6586    2.1431    0.0000 C   0  0  0  0  0  0  0  0  0  0  0  0
    1.3731    2.5556    0.0000 C   0  0  0  0  0  0  0  0  0  0  0  0
    0.6586    1.3181    0.0000 C   0  0  0  0  0  0  0  0  0  0  0  0
    1.3731    0.9056    0.0000 C   0  0  0  0  0  0  0  0  0  0  0  0
    1.3731    0.0806    0.0000 C   0  0  0  0  0  0  0  0  0  0  0  0
    0.6586   -0.3319    0.0000 C   0  0  0  0  0  0  0  0  0  0  0  0
    0.6586   -1.1569    0.0000 N   0  0  0  0  0  0  0  0  0  0  0  0
    1.3731   -1.5694    0.0000 C   0  0  0  0  0  0  0  0  0  0  0  0
    2.0876   -1.9819    0.0000 O   0  0  0  0  0  0  0  0  0  0  0  0
   -0.0558    0.0806    0.0000 C   0  0  0  0  0  0  0  0  0  0  0  0
   -0.0558    0.9056    0.0000 C   0  0  0  0  0  0  0  0  0  0  0  0
  1  2  1  0
  2  3  1  0
  2  4  1  0
  4  5  2  0
  5  6  1  0
  6  7  2  0
  7  8  1  0
  8  9  2  0
  9 10  2  0
  7 11  1  0
 11 12  2  0
  4 12  1  0
M  END
>  <name>  (40) 
1-isocyanato-4-(propan-2-yl)benzene

>  <Outcome>  (40) 
1

>  <SMILES>  (40) 
CC(C)c1ccc(N=C=O)cc1

$$$$

     RDKit          2D

  5  5  0  0  0  0  0  0  0  0999 V2000
    1.2631   -1.0721    0.0000 C   0  0  0  0  0  0  0  0  0  0  0  0
    1.2631   -0.2471    0.0000 C   0  0  0  0  0  0  0  0  0  0  0  0
    0.5486    0.1654    0.0000 C   0  0  0  0  0  0  0  0  0  0  0  0
    0.1361    0.8799    0.0000 C   0  0  0  0  0  0  0  0  0  0  0  0
   -0.2764    0.1654    0.0000 O   0  0  0  0  0  0  0  0  0  0  0  0
  1  2  1  0
  2  3  1  0
  4  3  1  0
  5  4  1  0
  3  5  1  0
M  END
>  <name>  (41) 
1,2-Epoxybutane

>  <Outcome>  (41) 
0

>  <SMILES>  (41) 
CCC1CO1

$$$$

     RDKit          2D

  9  9  0  0  0  0  0  0  0  0999 V2000
    0.7145    2.0625    0.0000 O   0  0  0  0  0  0  0  0  0  0  0  0
    0.7145    1.2375    0.0000 C   0  0  0  0  0  0  0  0  0  0  0  0
    1.4289    0.8250    0.0000 N   0  0  0  0  0  0  0  0  0  0  0  0
    1.4289   -0.0000    0.0000 C   0  0  0  0  0  0  0  0  0  0  0  0
    2.1434   -0.4125    0.0000 O   0  0  0  0  0  0  0  0  0  0  0  0
    0.7145   -0.4125    0.0000 N   0  0  0  0  0  0  0  0  0  0  0  0
   -0.0000   -0.0000    0.0000 C   0  0  0  0  0  0  0  0  0  0  0  0
   -0.7145   -0.4125    0.0000 O   0  0  0  0  0  0  0  0  0  0  0  0
   -0.0000    0.8250    0.0000 N   0  0  0  0  0  0  0  0  0  0  0  0
  1  2  2  0
  2  3  1  0
  3  4  1  0
  4  5  2  0
  4  6  1  0
  6  7  1  0
  7  8  2  0
  7  9  1  0
  2  9  1  0
M  END
>  <name>  (42) 
cyanuric acid

>  <Outcome>  (42) 
0

>  <SMILES>  (42) 
O=c1[nH]c(=O)[nH]c(=O)[nH]1

$$$$

     RDKit          2D

 12 11  0  0  0  0  0  0  0  0999 V2000
   -0.6918   -0.6485    0.0000 C   0  0  0  0  0  0  0  0  0  0  0  0
    0.0227   -1.0610    0.0000 C   0  0  0  0  0  0  0  0  0  0  0  0
    0.0227   -1.8860    0.0000 C   0  0  0  0  0  0  0  0  0  0  0  0
   -0.6918   -2.2985    0.0000 C   0  0  0  0  0  0  0  0  0  0  0  0
   -1.4062   -2.7110    0.0000 C   0  0  0  0  0  0  0  0  0  0  0  0
   -0.2793   -3.0130    0.0000 C   0  0  0  0  0  0  0  0  0  0  0  0
   -1.1043   -1.5840    0.0000 C   0  0  0  0  0  0  0  0  0  0  0  0
    0.7372   -0.6485    0.0000 C   0  0  0  0  0  0  0  0  0  0  0  0
    0.7372    0.1765    0.0000 C   0  0  0  0  0  0  0  0  0  0  0  0
    0.7372    1.0015    0.0000 C   0  0  0  0  0  0  0  0  0  0  0  0
    1.5622    0.1765    0.0000 C   0  0  0  0  0  0  0  0  0  0  0  0
   -0.0878    0.1765    0.0000 C   0  0  0  0  0  0  0  0  0  0  0  0
  1  2  1  0
  2  3  1  0
  3  4  1  0
  4  5  1  0
  4  6  1  0
  4  7  1  0
  2  8  1  0
  8  9  1  0
  9 10  1  0
  9 11  1  0
  9 12  1  0
M  END
>  <name>  (43) 
2,2,4,6,6-pentamethylheptane

>  <Outcome>  (43) 
0

>  <SMILES>  (43) 
CC(CC(C)(C)C)CC(C)(C)C

$$$$

     RDKit          2D

  6  5  0  0  0  0  0  0  0  0999 V2000
    0.0366   -1.0839    0.0000 C   0  0  0  0  0  0  0  0  0  0  0  0
    0.7511   -0.6714    0.0000 O   0  0  0  0  0  0  0  0  0  0  0  0
    0.7511    0.1536    0.0000 C   0  0  0  0  0  0  0  0  0  0  0  0
    0.7511    0.9786    0.0000 C   0  0  0  0  0  0  0  0  0  0  0  0
    1.5761    0.1536    0.0000 C   0  0  0  0  0  0  0  0  0  0  0  0
   -0.0739    0.1536    0.0000 C   0  0  0  0  0  0  0  0  0  0  0  0
  1  2  1  0
  2  3  1  0
  3  4  1  0
  3  5  1  0
  3  6  1  0
M  END
>  <name>  (44) 
2-methoxy-2-methylpropane

>  <Outcome>  (44) 
0

>  <SMILES>  (44) 
COC(C)(C)C

$$$$

     RDKit          2D

  5  4  0  0  0  0  0  0  0  0999 V2000
    0.8446    1.4911    0.0000 C   0  0  0  0  0  0  0  0  0  0  0  0
    1.2571    0.7766    0.0000 N   0  0  0  0  0  0  0  0  0  0  0  0
    0.8446    0.0621    0.0000 C   0  0  0  0  0  0  0  0  0  0  0  0
    1.2571   -0.6523    0.0000 C   0  0  0  0  0  0  0  0  0  0  0  0
    0.0196    0.0621    0.0000 C   0  0  0  0  0  0  0  0  0  0  0  0
  1  2  1  0
  2  3  1  0
  3  4  1  0
  3  5  1  0
M  END
>  <name>  (45) 
N-methylpropan-2-amine

>  <Outcome>  (45) 
1

>  <SMILES>  (45) 
CNC(C)C

$$$$

     RDKit          2D

  9  9  0  0  0  0  0  0  0  0999 V2000
    0.7774    2.1817    0.0000 C   0  0  0  0  0  0  0  0  0  0  0  0
    0.7774    1.3567    0.0000 C   0  0  0  0  0  0  0  0  0  0  0  0
    1.4919    0.9442    0.0000 C   0  0  0  0  0  0  0  0  0  0  0  0
    1.4919    0.1192    0.0000 C   0  0  0  0  0  0  0  0  0  0  0  0
    0.7774   -0.2933    0.0000 C   0  0  0  0  0  0  0  0  0  0  0  0
    0.0629    0.1192    0.0000 C   0  0  0  0  0  0  0  0  0  0  0  0
   -0.6515   -0.2933    0.0000 C   0  0  0  0  0  0  0  0  0  0  0  0
    0.0629    0.9442    0.0000 C   0  0  0  0  0  0  0  0  0  0  0  0
   -0.6515    1.3567    0.0000 N   0  0  0  0  0  0  0  0  0  0  0  0
  1  2  1  0
  2  3  1  0
  3  4  1  0
  4  5  1  0
  5  6  1  0
  6  7  1  0
  6  8  1  0
  2  8  1  0
  8  9  1  0
M  END
>  <name>  (46) 
2,6-dimethylcyclohexanamine

>  <Outcome>  (46) 
1

>  <SMILES>  (46) 
CC1CCCC(C)C1N

$$$$

     RDKit          2D

 12 13  0  0  0  0  0  0  0  0999 V2000
   -0.5490   -4.6471    0.0000 C   0  0  0  0  0  0  0  0  0  0  0  0
    0.7500   -5.3971    0.0000 C   0  0  0  0  0  0  0  0  0  0  0  0
    0.7500   -3.8971    0.0000 C   0  0  0  0  0  0  0  0  0  0  0  0
    1.5000   -2.5981    0.0000 N   0  0  0  0  0  0  0  0  0  0  0  0
    0.7500   -1.2990    0.0000 C   0  0  0  0  0  0  0  0  0  0  0  0
    1.5000    0.0000    0.0000 N   0  0  0  0  0  0  0  0  0  0  0  0
    0.7500    1.2990    0.0000 C   0  0  0  0  0  0  0  0  0  0  0  0
   -0.7500    1.2990    0.0000 N   0  0  0  0  0  0  0  0  0  0  0  0
   -1.5000    0.0000    0.0000 C   0  0  0  0  0  0  0  0  0  0  0  0
   -0.7500   -1.2990    0.0000 N   0  0  0  0  0  0  0  0  0  0  0  0
   -3.0000    0.0000    0.0000 N   0  0  0  0  0  0  0  0  0  0  0  0
    1.5000    2.5981    0.0000 N   0  0  0  0  0  0  0  0  0  0  0  0
  1  2  1  0
  2  3  1  0
  3  4  1  0
  4  5  1  0
  5  6  2  0
  6  7  1  0
  7  8  2  0
  8  9  1  0
  9 10  2  0
  9 11  1  0
  7 12  1  0
  3  1  1  0
 10  5  1  0
M  END
>  <name>  (47) 
2-N-cyclopropyl-1,3,5-triazine-2,4,6-triamine

>  <Outcome>  (47) 
2

>  <SMILES>  (47) 
Nc1nc(N)nc(NC2CC2)n1

$$$$

     RDKit          2D

 14 13  0  0  0  0  0  0  0  0999 V2000
    1.2375    0.7145    0.0000 F   0  0  0  0  0  0  0  0  0  0  0  0
    0.8250    0.0000    0.0000 C   0  0  0  0  0  0  0  0  0  0  0  0
    1.2375   -0.7145    0.0000 F   0  0  0  0  0  0  0  0  0  0  0  0
   -0.0000    0.0000    0.0000 C   0  0  0  0  0  0  0  0  0  0  0  0
   -0.4125    0.7145    0.0000 F   0  0  0  0  0  0  0  0  0  0  0  0
   -0.4125   -0.7145    0.0000 O   0  0  0  0  0  0  0  0  0  0  0  0
   -1.2375   -0.7145    0.0000 C   0  0  0  0  0  0  0  0  0  0  0  0
   -1.2375    0.1105    0.0000 F   0  0  0  0  0  0  0  0  0  0  0  0
   -1.2375   -1.5395    0.0000 F   0  0  0  0  0  0  0  0  0  0  0  0
   -2.0625   -0.7145    0.0000 O   0  0  0  0  0  0  0  0  0  0  0  0
   -2.4750   -1.4289    0.0000 C   0  0  0  0  0  0  0  0  0  0  0  0
   -2.8875   -2.1434    0.0000 F   0  0  0  0  0  0  0  0  0  0  0  0
   -3.1895   -1.0164    0.0000 F   0  0  0  0  0  0  0  0  0  0  0  0
   -1.7605   -1.8414    0.0000 F   0  0  0  0  0  0  0  0  0  0  0  0
  1  2  1  0
  2  3  1  0
  2  4  2  0
  4  5  1  0
  4  6  1  0
  6  7  1  0
  7  8  1  0
  7  9  1  0
  7 10  1  0
 10 11  1  0
 11 12  1  0
 11 13  1  0
 11 14  1  0
M  END
>  <name>  (48) 
unnamed [700874-87-9]

>  <Outcome>  (48) 
0

>  <SMILES>  (48) 
FC(F)=C(F)OC(F)(F)OC(F)(F)F

$$$$

     RDKit          2D

 12 12  0  0  0  0  0  0  0  0999 V2000
    1.2241    2.4144    0.0000 C   0  0  0  0  0  0  0  0  0  0  0  0
    1.2241    1.5894    0.0000 C   0  0  0  0  0  0  0  0  0  0  0  0
    1.9386    1.1769    0.0000 C   0  0  0  0  0  0  0  0  0  0  0  0
    0.5097    1.1769    0.0000 C   0  0  0  0  0  0  0  0  0  0  0  0
   -0.2048    1.5894    0.0000 C   0  0  0  0  0  0  0  0  0  0  0  0
   -0.9193    1.1769    0.0000 C   0  0  0  0  0  0  0  0  0  0  0  0
   -0.9193    0.3519    0.0000 C   0  0  0  0  0  0  0  0  0  0  0  0
   -0.2048   -0.0606    0.0000 C   0  0  0  0  0  0  0  0  0  0  0  0
    0.5097    0.3519    0.0000 C   0  0  0  0  0  0  0  0  0  0  0  0
   -0.2048   -0.8856    0.0000 C   0  0  0  0  0  0  0  0  0  0  0  0
    0.5097   -1.2981    0.0000 C   0  0  0  0  0  0  0  0  0  0  0  0
   -0.9193   -1.2981    0.0000 C   0  0  0  0  0  0  0  0  0  0  0  0
  1  2  1  0
  2  3  2  0
  2  4  1  0
  5  4  2  0
  6  5  1  0
  7  6  2  0
  8  7  1  0
  9  8  2  0
  8 10  1  0
 10 11  1  0
 10 12  2  0
  4  9  1  0
M  END
>  <name>  (49) 
1,3-Diisopropenylbenzene

>  <Outcome>  (49) 
1

>  <SMILES>  (49) 
C=C(C)c1cccc(C(=C)C)c1

$$$$

     RDKit          2D

  3  2  0  0  0  0  0  0  0  0999 V2000
    2.2000   -0.0000    0.0000 C   0  0  0  0  0  0  0  0  0  0  0  0
    1.3750    0.0000    0.0000 C   0  0  0  0  0  0  0  0  0  0  0  0
    0.5500    0.0000    0.0000 N   0  0  0  0  0  0  0  0  0  0  0  0
  1  2  1  0
  2  3  3  0
M  END
>  <name>  (50) 
acetonitrile

>  <Outcome>  (50) 
1

>  <SMILES>  (50) 
CC#N

$$$$

     RDKit          2D

 20 21  0  0  0  0  0  0  0  0999 V2000
    0.8899   -3.9684    0.0000 C   0  0  0  0  0  0  0  0  0  0  0  0
    2.0046   -4.9721    0.0000 C   0  0  0  0  0  0  0  0  0  0  0  0
    3.3037   -4.2221    0.0000 C   0  0  0  0  0  0  0  0  0  0  0  0
    2.9918   -2.7549    0.0000 O   0  0  0  0  0  0  0  0  0  0  0  0
    1.5000   -2.5981    0.0000 C   0  0  0  0  0  0  0  0  0  0  0  0
    0.7500   -1.2990    0.0000 N   0  0  0  0  0  0  0  0  0  0  0  0
    1.5000    0.0000    0.0000 C   0  0  0  0  0  0  0  0  0  0  0  0
    0.7500    1.2990    0.0000 C   0  0  0  0  0  0  0  0  0  0  0  0
   -0.7500    1.2990    0.0000 C   0  0  0  0  0  0  0  0  0  0  0  0
   -1.5000    2.5981    0.0000 O   0  0  0  0  0  0  0  0  0  0  0  0
   -1.5000    0.0000    0.0000 N   0  0  0  0  0  0  0  0  0  0  0  0
   -0.7500   -1.2990    0.0000 C   0  0  0  0  0  0  0  0  0  0  0  0
   -1.5000   -2.5981    0.0000 O   0  0  0  0  0  0  0  0  0  0  0  0
    1.5000    2.5981    0.0000 C   0  0  0  0  0  0  0  0  0  0  0  0
    2.2500    3.8971    0.0000 F   0  0  0  0  0  0  0  0  0  0  0  0
    2.7990    1.8481    0.0000 F   0  0  0  0  0  0  0  0  0  0  0  0
    0.2010    3.3481    0.0000 F   0  0  0  0  0  0  0  0  0  0  0  0
    4.6740   -4.8322    0.0000 C   0  0  0  0  0  0  0  0  0  0  0  0
    5.8875   -3.9505    0.0000 O   0  0  0  0  0  0  0  0  0  0  0  0
    1.8478   -6.4639    0.0000 O   0  0  0  0  0  0  0  0  0  0  0  0
  1  2  1  0
  2  3  1  0
  3  4  1  0
  4  5  1  0
  5  6  1  0
  6  7  1  0
  7  8  2  0
  8  9  1  0
  9 10  2  0
  9 11  1  0
 11 12  1  0
 12 13  2  0
  8 14  1  0
 14 15  1  0
 14 16  1  0
 14 17  1  0
  3 18  1  0
 18 19  1  0
  2 20  1  0
  5  1  1  0
 12  6  1  0
M  END
>  <name>  (51) 
1-[(2R,4S,5R)-4-hydroxy-5-(hydroxymethyl)oxolan-2-yl]-5-(trifluoromethyl)pyrimidine-2,4-dione

>  <Outcome>  (51) 
2

>  <SMILES>  (51) 
O=c1[nH]c(=O)n(C2CC(O)C(CO)O2)cc1C(F)(F)F

$$$$

     RDKit          2D

  6  5  0  0  0  0  0  0  0  0999 V2000
    0.0000    0.0000    0.0000 C   0  0  0  0  0  0  0  0  0  0  0  0
    0.7145    0.4125    0.0000 S   0  0  0  0  0  0  0  0  0  0  0  0
    1.4290    0.0000    0.0000 C   0  0  0  0  0  0  0  0  0  0  0  0
    2.1435    0.4125    0.0000 C   0  0  0  0  0  0  0  0  0  0  0  0
    2.8579    0.0000    0.0000 C   0  0  0  0  0  0  0  0  0  0  0  0
    3.5724    0.4125    0.0000 O   0  0  0  0  0  0  0  0  0  0  0  0
  1  2  1  0
  2  3  1  0
  3  4  1  0
  4  5  1  0
  5  6  2  0
M  END
>  <name>  (52) 
3-(Methylthio)propanal

>  <Outcome>  (52) 
1

>  <SMILES>  (52) 
CSCCC=O

$$$$

     RDKit          2D

 20 23  0  0  0  0  0  0  0  0999 V2000
    1.9981   -4.0800    0.0000 O   0  0  0  0  0  0  0  0  0  0  0  0
    2.2530   -3.2954    0.0000 C   0  0  0  0  0  0  0  0  0  0  0  0
    1.7681   -2.6279    0.0000 C   0  0  0  0  0  0  0  0  0  0  0  0
    0.9431   -2.6279    0.0000 C   0  0  0  0  0  0  0  0  0  0  0  0
    0.4582   -3.2954    0.0000 N   0  0  0  0  0  0  0  0  0  0  0  0
   -0.3264   -3.0404    0.0000 C   0  0  0  0  0  0  0  0  0  0  0  0
   -1.0409   -3.4529    0.0000 C   0  0  0  0  0  0  0  0  0  0  0  0
   -1.7554   -3.0404    0.0000 C   0  0  0  0  0  0  0  0  0  0  0  0
   -1.7554   -2.2154    0.0000 C   0  0  0  0  0  0  0  0  0  0  0  0
   -1.0409   -1.8029    0.0000 C   0  0  0  0  0  0  0  0  0  0  0  0
   -0.3264   -2.2154    0.0000 C   0  0  0  0  0  0  0  0  0  0  0  0
    0.4582   -1.9605    0.0000 C   0  0  0  0  0  0  0  0  0  0  0  0
    0.7131   -1.1759    0.0000 O   0  0  0  0  0  0  0  0  0  0  0  0
    2.2530   -1.9605    0.0000 N   0  0  0  0  0  0  0  0  0  0  0  0
    3.0376   -2.2154    0.0000 C   0  0  0  0  0  0  0  0  0  0  0  0
    3.7521   -1.8029    0.0000 C   0  0  0  0  0  0  0  0  0  0  0  0
    4.4666   -2.2154    0.0000 C   0  0  0  0  0  0  0  0  0  0  0  0
    4.4666   -3.0404    0.0000 C   0  0  0  0  0  0  0  0  0  0  0  0
    3.7521   -3.4529    0.0000 C   0  0  0  0  0  0  0  0  0  0  0  0
    3.0376   -3.0404    0.0000 C   0  0  0  0  0  0  0  0  0  0  0  0
  1  2  2  0
  3  2  1  0
  3  4  2  3
  4  5  1  0
  5  6  1  0
  6  7  2  0
  7  8  1  0
  8  9  2  0
  9 10  1  0
 10 11  2  0
  6 11  1  0
 11 12  1  0
  4 12  1  0
 12 13  2  0
  3 14  1  0
 14 15  1  0
 15 16  2  0
 16 17  1  0
 17 18  2  0
 18 19  1  0
 19 20  2  0
 15 20  1  0
  2 20  1  0
M  END
>  <name>  (53) 
2,2'-biindole-3,3'(1H,1'H)-dione

>  <Outcome>  (53) 
0

>  <SMILES>  (53) 
O=C1C(=C2Nc3ccccc3C2=O)Nc2ccccc21

$$$$

     RDKit          2D

 20 20  0  0  0  0  0  0  0  0999 V2000
    3.1499    0.9131    0.0000 C   0  0  0  0  0  0  0  0  0  0  0  0
    1.9598    0.0000    0.0000 Si  0  0  0  0  0  4  0  0  0  0  0  0
    1.3858   -1.3858    0.0000 O   0  0  0  0  0  0  0  0  0  0  0  0
   -0.0000   -1.9598    0.0000 Si  0  0  0  0  0  4  0  0  0  0  0  0
   -1.3858   -1.3858    0.0000 O   0  0  0  0  0  0  0  0  0  0  0  0
   -1.9598    0.0000    0.0000 Si  0  0  0  0  0  4  0  0  0  0  0  0
   -1.3858    1.3858    0.0000 O   0  0  0  0  0  0  0  0  0  0  0  0
    0.0000    1.9598    0.0000 Si  0  0  0  0  0  4  0  0  0  0  0  0
    1.3858    1.3858    0.0000 O   0  0  0  0  0  0  0  0  0  0  0  0
   -0.9131    3.1499    0.0000 C   0  0  0  0  0  0  0  0  0  0  0  0
    0.9131    3.1499    0.0000 C   0  0  0  0  0  0  0  0  0  0  0  0
    0.3391    4.5357    0.0000 C   0  0  0  0  0  0  0  0  0  0  0  0
   -3.1499   -0.9131    0.0000 C   0  0  0  0  0  0  0  0  0  0  0  0
   -3.1499    0.9131    0.0000 C   0  0  0  0  0  0  0  0  0  0  0  0
   -4.5357    0.3391    0.0000 C   0  0  0  0  0  0  0  0  0  0  0  0
    0.9131   -3.1499    0.0000 C   0  0  0  0  0  0  0  0  0  0  0  0
   -0.9131   -3.1499    0.0000 C   0  0  0  0  0  0  0  0  0  0  0  0
   -0.3391   -4.5357    0.0000 C   0  0  0  0  0  0  0  0  0  0  0  0
    3.1499   -0.9131    0.0000 C   0  0  0  0  0  0  0  0  0  0  0  0
    4.5357   -0.3391    0.0000 C   0  0  0  0  0  0  0  0  0  0  0  0
  1  2  1  0
  2  3  1  0
  3  4  1  0
  4  5  1  0
  5  6  1  0
  6  7  1  0
  7  8  1  0
  8  9  1  0
  8 10  1  0
  8 11  1  0
 11 12  2  0
  6 13  1  0
  6 14  1  0
 14 15  2  0
  4 16  1  0
  4 17  1  0
 17 18  2  0
  2 19  1  0
 19 20  2  0
  9  2  1  0
M  END
>  <name>  (54) 
2,4,6,8-tetrakis(ethenyl)-2,4,6,8-tetramethyl-1,3,5,7,2,4,6,8-tetraoxatetrasilocane

>  <Outcome>  (54) 
2

>  <SMILES>  (54) 
C=C[Si]1(C)O[Si](C)(C=C)O[Si](C)(C=C)O[Si](C)(C=C)O1

$$$$

     RDKit          2D

 18 17  0  0  0  0  0  0  0  0999 V2000
    2.2371    0.6870    0.0000 C   0  0  0  0  0  0  0  0  0  0  0  0
    2.2371    1.5120    0.0000 C   0  0  0  0  0  0  0  0  0  0  0  0
    1.5226    1.9245    0.0000 O   0  0  0  0  0  0  0  0  0  0  0  0
    0.8082    1.5120    0.0000 Si  0  0  0  0  0  4  0  0  0  0  0  0
    0.0937    1.0995    0.0000 C   0  0  0  0  0  0  0  0  0  0  0  0
   -0.6208    1.5120    0.0000 C   0  0  0  0  0  0  0  0  0  0  0  0
   -1.3352    1.0995    0.0000 C   0  0  0  0  0  0  0  0  0  0  0  0
   -0.6208    2.3370    0.0000 C   0  0  0  0  0  0  0  0  0  0  0  0
   -1.3352    2.7495    0.0000 C   0  0  0  0  0  0  0  0  0  0  0  0
   -2.0497    3.1620    0.0000 C   0  0  0  0  0  0  0  0  0  0  0  0
   -0.9227    3.4640    0.0000 C   0  0  0  0  0  0  0  0  0  0  0  0
   -1.7477    2.0351    0.0000 C   0  0  0  0  0  0  0  0  0  0  0  0
    0.3957    2.2265    0.0000 O   0  0  0  0  0  0  0  0  0  0  0  0
    0.8082    2.9410    0.0000 C   0  0  0  0  0  0  0  0  0  0  0  0
    1.6332    2.9410    0.0000 C   0  0  0  0  0  0  0  0  0  0  0  0
    1.2207    0.7976    0.0000 O   0  0  0  0  0  0  0  0  0  0  0  0
    0.8082    0.0831    0.0000 C   0  0  0  0  0  0  0  0  0  0  0  0
   -0.0168    0.0831    0.0000 C   0  0  0  0  0  0  0  0  0  0  0  0
  1  2  1  0
  2  3  1  0
  3  4  1  0
  4  5  1  0
  5  6  1  0
  6  7  1  0
  6  8  1  0
  8  9  1  0
  9 10  1  0
  9 11  1  0
  9 12  1  0
  4 13  1  0
 13 14  1  0
 14 15  1  0
  4 16  1  0
 16 17  1  0
 17 18  1  0
M  END
>  <name>  (55) 
triethoxy(2,4,4-trimethylpentyl)silane

>  <Outcome>  (55) 
0

>  <SMILES>  (55) 
CCO[Si](CC(C)CC(C)(C)C)(OCC)OCC

$$$$

     RDKit          2D

  8  7  0  0  0  0  0  0  0  0999 V2000
    0.4125   -1.2375    0.0000 F   0  0  0  0  0  0  0  0  0  0  0  0
    0.4125   -0.4125    0.0000 C   0  0  0  0  0  0  0  0  0  0  0  0
    1.2375   -0.4125    0.0000 F   0  0  0  0  0  0  0  0  0  0  0  0
   -0.4125   -0.4125    0.0000 F   0  0  0  0  0  0  0  0  0  0  0  0
    0.4125    0.4125    0.0000 C   0  0  0  0  0  0  0  0  0  0  0  0
    0.4125    1.2375    0.0000 Cl  0  0  0  0  0  0  0  0  0  0  0  0
    1.2375    0.4125    0.0000 Cl  0  0  0  0  0  0  0  0  0  0  0  0
   -0.4125    0.4125    0.0000 Cl  0  0  0  0  0  0  0  0  0  0  0  0
  1  2  1  0
  2  3  1  0
  2  4  1  0
  2  5  1  0
  5  6  1  0
  5  7  1  0
  5  8  1  0
M  END
>  <name>  (56) 
1,1,1-Trichloro-2,2,2-trifluoroethane

>  <Outcome>  (56) 
0

>  <SMILES>  (56) 
FC(F)(F)C(Cl)(Cl)Cl

$$$$

     RDKit          2D

  9  6  0  0  0  0  0  0  0  0999 V2000
    0.0000    0.0000    0.0000 Be  0  0  0  0  0 15  0  0  0  0  0  0
    2.2990    0.0000    0.0000 N   0  0  0  0  0  4  0  0  0  0  0  0
    2.2990   -1.5000    0.0000 O   0  0  0  0  0  0  0  0  0  0  0  0
    3.5981    0.7500    0.0000 O   0  0  0  0  0  1  0  0  0  0  0  0
    1.0000    0.7500    0.0000 O   0  0  0  0  0  1  0  0  0  0  0  0
    0.0000    2.5000    0.0000 N   0  0  0  0  0  4  0  0  0  0  0  0
   -0.0000    1.0000    0.0000 O   0  0  0  0  0  0  0  0  0  0  0  0
    1.2990    3.2500    0.0000 O   0  0  0  0  0  1  0  0  0  0  0  0
   -1.2990    3.2500    0.0000 O   0  0  0  0  0  1  0  0  0  0  0  0
  2  3  2  0
  2  4  1  0
  2  5  1  0
  6  7  2  0
  6  8  1  0
  6  9  1  0
M  CHG  7   1   2   2   1   4  -1   5  -1   6   1   8  -1   9  -1
M  END
>  <name>  (57) 
beryllium;dinitrate

>  <Outcome>  (57) 
2

>  <SMILES>  (57) 
O=[N+]([O-])[O-].O=[N+]([O-])[O-].[Be+2]

$$$$

     RDKit          2D

 19 21  0  0  0  0  0  0  0  0999 V2000
   -0.6902    1.9719    0.0000 C   0  0  0  0  0  0  0  0  0  0  0  0
    0.0243    1.5594    0.0000 C   0  0  0  0  0  0  0  0  0  0  0  0
    0.0243    0.7344    0.0000 C   0  0  0  0  0  0  0  0  0  0  0  0
   -0.6902    0.3219    0.0000 C   0  0  0  0  0  0  0  0  0  0  0  0
   -0.6902   -0.5031    0.0000 P   0  0  0  0  0  0  0  0  0  0  0  0
   -1.4047   -0.9156    0.0000 C   0  0  0  0  0  0  0  0  0  0  0  0
   -1.4047   -1.7406    0.0000 C   0  0  0  0  0  0  0  0  0  0  0  0
   -2.1192   -2.1531    0.0000 C   0  0  0  0  0  0  0  0  0  0  0  0
   -2.8336   -1.7406    0.0000 C   0  0  0  0  0  0  0  0  0  0  0  0
   -2.8336   -0.9156    0.0000 C   0  0  0  0  0  0  0  0  0  0  0  0
   -2.1192   -0.5031    0.0000 C   0  0  0  0  0  0  0  0  0  0  0  0
    0.0243   -0.9156    0.0000 C   0  0  0  0  0  0  0  0  0  0  0  0
    0.7387   -0.5031    0.0000 C   0  0  0  0  0  0  0  0  0  0  0  0
    1.4532   -0.9156    0.0000 C   0  0  0  0  0  0  0  0  0  0  0  0
    1.4532   -1.7406    0.0000 C   0  0  0  0  0  0  0  0  0  0  0  0
    0.7387   -2.1531    0.0000 C   0  0  0  0  0  0  0  0  0  0  0  0
    0.0243   -1.7406    0.0000 C   0  0  0  0  0  0  0  0  0  0  0  0
   -1.4047    0.7344    0.0000 C   0  0  0  0  0  0  0  0  0  0  0  0
   -1.4047    1.5594    0.0000 C   0  0  0  0  0  0  0  0  0  0  0  0
  1  2  2  0
  2  3  1  0
  3  4  2  0
  4  5  1  0
  5  6  1  0
  6  7  2  0
  7  8  1  0
  8  9  2  0
  9 10  1  0
 10 11  2  0
  6 11  1  0
  5 12  1  0
 12 13  2  0
 13 14  1  0
 14 15  2  0
 15 16  1  0
 16 17  2  0
 12 17  1  0
  4 18  1  0
 18 19  2  0
  1 19  1  0
M  END
>  <name>  (58) 
triphenylphosphane

>  <Outcome>  (58) 
0

>  <SMILES>  (58) 
c1ccc(P(c2ccccc2)c2ccccc2)cc1

$$$$

     RDKit          2D

 18 18  0  0  0  0  0  0  0  0999 V2000
   -0.2034    2.1204    0.0000 C   0  0  0  0  0  0  0  0  0  0  0  0
    0.6216    2.1204    0.0000 C   0  0  0  0  0  0  0  0  0  0  0  0
    1.4466    2.1204    0.0000 C   0  0  0  0  0  0  0  0  0  0  0  0
    0.6216    2.9454    0.0000 N   0  0  0  0  0  0  0  0  0  0  0  0
    1.3361    3.3579    0.0000 C   0  0  0  0  0  0  0  0  0  0  0  0
    2.0506    3.7704    0.0000 O   0  0  0  0  0  0  0  0  0  0  0  0
    0.6216    1.2954    0.0000 C   0  0  0  0  0  0  0  0  0  0  0  0
    1.3361    0.8829    0.0000 C   0  0  0  0  0  0  0  0  0  0  0  0
    1.3361    0.0579    0.0000 C   0  0  0  0  0  0  0  0  0  0  0  0
    0.6216   -0.3546    0.0000 C   0  0  0  0  0  0  0  0  0  0  0  0
   -0.0929    0.0579    0.0000 C   0  0  0  0  0  0  0  0  0  0  0  0
   -0.8073   -0.3546    0.0000 C   0  0  0  0  0  0  0  0  0  0  0  0
   -1.2198    0.3598    0.0000 C   0  0  0  0  0  0  0  0  0  0  0  0
   -0.3948   -1.0691    0.0000 C   0  0  0  0  0  0  0  0  0  0  0  0
   -1.5218   -0.7671    0.0000 N   0  0  0  0  0  0  0  0  0  0  0  0
   -1.5218   -1.5921    0.0000 C   0  0  0  0  0  0  0  0  0  0  0  0
   -1.5218   -2.4171    0.0000 O   0  0  0  0  0  0  0  0  0  0  0  0
   -0.0929    0.8829    0.0000 C   0  0  0  0  0  0  0  0  0  0  0  0
  1  2  1  0
  2  3  1  0
  2  4  1  0
  4  5  2  0
  5  6  2  0
  2  7  1  0
  7  8  2  0
  8  9  1  0
  9 10  2  0
 10 11  1  0
 11 12  1  0
 12 13  1  0
 12 14  1  0
 12 15  1  0
 15 16  2  0
 16 17  2  0
 11 18  2  0
  7 18  1  0
M  END
>  <name>  (59) 
1,3-bis(2-isocyanatopropan-2-yl)benzene

>  <Outcome>  (59) 
1

>  <SMILES>  (59) 
CC(C)(N=C=O)c1cccc(C(C)(C)N=C=O)c1

$$$$

     RDKit          2D

 10  9  0  0  0  0  0  0  0  0999 V2000
    2.2835    2.1434    0.0000 O   0  0  0  0  0  0  0  0  0  0  0  0
    2.9980    2.5559    0.0000 C   0  0  0  0  0  0  0  0  0  0  0  0
    3.7125    2.1434    0.0000 C   0  0  0  0  0  0  0  0  0  0  0  0
    4.4269    2.5559    0.0000 O   0  0  0  0  0  0  0  0  0  0  0  0
    5.1414    2.1434    0.0000 C   0  0  0  0  0  0  0  0  0  0  0  0
    5.8559    2.5559    0.0000 C   0  0  0  0  0  0  0  0  0  0  0  0
    6.5704    2.1434    0.0000 O   0  0  0  0  0  0  0  0  0  0  0  0
    7.2848    2.5559    0.0000 C   0  0  0  0  0  0  0  0  0  0  0  0
    7.9993    2.1434    0.0000 C   0  0  0  0  0  0  0  0  0  0  0  0
    8.7138    2.5559    0.0000 O   0  0  0  0  0  0  0  0  0  0  0  0
  1  2  1  0
  2  3  1  0
  3  4  1  0
  4  5  1  0
  5  6  1  0
  6  7  1  0
  7  8  1  0
  8  9  1  0
  9 10  1  0
M  END
>  <name>  (60) 
2-[2-(2-hydroxyethoxy)ethoxy]ethan-1-ol

>  <Outcome>  (60) 
0

>  <SMILES>  (60) 
OCCOCCOCCO

$$$$

     RDKit          2D

  9  9  0  0  0  0  0  0  0  0999 V2000
    2.2595   -0.0206    0.0000 C   0  0  0  0  0  0  0  0  0  0  0  0
    1.5450    0.3919    0.0000 N   0  0  0  0  0  0  0  0  0  0  0  0
    1.5450    1.2169    0.0000 C   0  0  0  0  0  0  0  0  0  0  0  0
    0.8305   -0.0206    0.0000 C   0  0  0  0  0  0  0  0  0  0  0  0
    0.1161    0.3919    0.0000 C   0  0  0  0  0  0  0  0  0  0  0  0
   -0.5984   -0.0206    0.0000 C   0  0  0  0  0  0  0  0  0  0  0  0
   -0.5984   -0.8456    0.0000 C   0  0  0  0  0  0  0  0  0  0  0  0
    0.1161   -1.2581    0.0000 C   0  0  0  0  0  0  0  0  0  0  0  0
    0.8305   -0.8456    0.0000 C   0  0  0  0  0  0  0  0  0  0  0  0
  1  2  1  0
  2  3  1  0
  2  4  1  0
  5  4  2  0
  6  5  1  0
  7  6  2  0
  8  7  1  0
  9  8  2  0
  4  9  1  0
M  END
>  <name>  (61) 
N,N-Dimethylaniline

>  <Outcome>  (61) 
0

>  <SMILES>  (61) 
CN(C)c1ccccc1

$$$$

     RDKit          2D

 25 26  0  0  0  0  0  0  0  0999 V2000
    0.7145   -2.0609    0.0000 O   0  0  0  0  0  0  0  0  0  0  0  0
    0.7145   -1.2359    0.0000 C   0  0  0  0  0  0  0  0  0  0  0  0
    1.4289   -0.8234    0.0000 O   0  0  0  0  0  0  0  0  0  0  0  0
    2.1434   -1.2359    0.0000 C   0  0  0  0  0  0  0  0  0  0  0  0
    2.8579   -0.8234    0.0000 C   0  0  0  0  0  0  0  0  0  0  0  0
    3.5724   -1.2359    0.0000 C   0  0  0  0  0  0  0  0  0  0  0  0
    4.2868   -0.8234    0.0000 O   0  0  0  0  0  0  0  0  0  0  0  0
    5.0013   -1.2359    0.0000 C   0  0  0  0  0  0  0  0  0  0  0  0
    5.7158   -0.8234    0.0000 C   0  0  0  0  0  0  0  0  0  0  0  0
    6.4302   -1.2359    0.0000 C   0  0  0  0  0  0  0  0  0  0  0  0
    7.1447   -0.8234    0.0000 O   0  0  0  0  0  0  0  0  0  0  0  0
    7.8592   -1.2359    0.0000 C   0  0  0  0  0  0  0  0  0  0  0  0
    7.8592   -2.0609    0.0000 O   0  0  0  0  0  0  0  0  0  0  0  0
    8.5737   -0.8234    0.0000 C   0  0  0  0  0  0  0  0  0  0  0  0
    8.5737    0.0016    0.0000 C   0  0  0  0  0  0  0  0  0  0  0  0
    9.2881    0.4141    0.0000 C   0  0  0  0  0  0  0  0  0  0  0  0
   10.0026    0.0016    0.0000 C   0  0  0  0  0  0  0  0  0  0  0  0
   10.0026   -0.8234    0.0000 C   0  0  0  0  0  0  0  0  0  0  0  0
    9.2881   -1.2359    0.0000 C   0  0  0  0  0  0  0  0  0  0  0  0
    0.0000   -0.8234    0.0000 C   0  0  0  0  0  0  0  0  0  0  0  0
   -0.7145   -1.2359    0.0000 C   0  0  0  0  0  0  0  0  0  0  0  0
   -1.4289   -0.8234    0.0000 C   0  0  0  0  0  0  0  0  0  0  0  0
   -1.4289    0.0016    0.0000 C   0  0  0  0  0  0  0  0  0  0  0  0
   -0.7145    0.4141    0.0000 C   0  0  0  0  0  0  0  0  0  0  0  0
    0.0000    0.0016    0.0000 C   0  0  0  0  0  0  0  0  0  0  0  0
  1  2  2  0
  2  3  1  0
  3  4  1  0
  4  5  1  0
  5  6  1  0
  6  7  1  0
  7  8  1  0
  8  9  1  0
  9 10  1  0
 10 11  1  0
 11 12  1  0
 12 13  2  0
 12 14  1  0
 14 15  2  0
 15 16  1  0
 16 17  2  0
 17 18  1  0
 18 19  2  0
 14 19  1  0
  2 20  1  0
 20 21  2  0
 21 22  1  0
 22 23  2  0
 23 24  1  0
 24 25  2  0
 20 25  1  0
M  END
>  <name>  (62) 
1-[2-(benzoyloxy)propoxy]propan-2-yl benzoate 1-{[1-(benzoyloxy)propan-2-yl]oxy}propan-2-yl benzoate 2-{[1-(benzoyloxy)propan-2-yl]oxy}propyl benzoate

>  <Outcome>  (62) 
0

>  <SMILES>  (62) 
O=C(OCCCOCCCOC(=O)c1ccccc1)c1ccccc1

$$$$

     RDKit          2D

 10  9  0  0  0  0  0  0  0  0999 V2000
    1.5395   -1.2375    0.0000 C   0  0  0  0  0  0  0  0  0  0  0  0
    0.8250   -0.8250    0.0000 C   0  0  0  0  0  0  0  0  0  0  0  0
    0.1105   -1.2375    0.0000 C   0  0  0  0  0  0  0  0  0  0  0  0
   -0.6039   -1.6500    0.0000 F   0  0  0  0  0  0  0  0  0  0  0  0
    0.5230   -1.9520    0.0000 F   0  0  0  0  0  0  0  0  0  0  0  0
   -0.3020   -0.5230    0.0000 F   0  0  0  0  0  0  0  0  0  0  0  0
    0.8250    0.0000    0.0000 C   0  0  0  0  0  0  0  0  0  0  0  0
    0.8250    0.8250    0.0000 F   0  0  0  0  0  0  0  0  0  0  0  0
    1.6500    0.0000    0.0000 F   0  0  0  0  0  0  0  0  0  0  0  0
    0.0000    0.0000    0.0000 F   0  0  0  0  0  0  0  0  0  0  0  0
  1  2  2  0
  2  3  1  0
  3  4  1  0
  3  5  1  0
  3  6  1  0
  2  7  1  0
  7  8  1  0
  7  9  1  0
  7 10  1  0
M  END
>  <name>  (63) 
3,3,3-trifluoro-2-(trifluoromethyl)prop-1-ene

>  <Outcome>  (63) 
1

>  <SMILES>  (63) 
C=C(C(F)(F)F)C(F)(F)F

$$$$

     RDKit          2D

 11 11  0  0  0  0  0  0  0  0999 V2000
    0.7145    2.0625    0.0000 O   0  0  0  0  0  0  0  0  0  0  0  0
    0.7145    1.2375    0.0000 C   0  0  0  0  0  0  0  0  0  0  0  0
    1.4289    0.8250    0.0000 N   0  0  0  0  0  0  0  0  0  0  0  0
    1.4289   -0.0000    0.0000 C   0  0  0  0  0  0  0  0  0  0  0  0
    2.1434   -0.4125    0.0000 O   0  0  0  0  0  0  0  0  0  0  0  0
    0.7145   -0.4125    0.0000 N   0  0  0  0  0  0  0  0  0  0  0  0
    0.7145   -1.2375    0.0000 Cl  0  0  0  0  0  0  0  0  0  0  0  0
   -0.0000   -0.0000    0.0000 C   0  0  0  0  0  0  0  0  0  0  0  0
   -0.7145   -0.4125    0.0000 O   0  0  0  0  0  0  0  0  0  0  0  0
   -0.0000    0.8250    0.0000 N   0  0  0  0  0  0  0  0  0  0  0  0
   -0.7145    1.2375    0.0000 Cl  0  0  0  0  0  0  0  0  0  0  0  0
  1  2  2  0
  2  3  1  0
  3  4  1  0
  4  5  2  0
  4  6  1  0
  6  7  1  0
  6  8  1  0
  8  9  2  0
  8 10  1  0
  2 10  1  0
 10 11  1  0
M  END
>  <name>  (64) 
troclosene sodium

>  <Outcome>  (64) 
1

>  <SMILES>  (64) 
O=c1[nH]c(=O)n(Cl)c(=O)n1Cl

$$$$

     RDKit          2D

 11 10  0  0  0  0  0  0  0  0999 V2000
   -2.0362    1.2994    0.0000 C   0  0  0  0  0  0  0  0  0  0  0  0
   -1.3218    1.7119    0.0000 C   0  0  0  0  0  0  0  0  0  0  0  0
   -1.3218    2.5369    0.0000 C   0  0  0  0  0  0  0  0  0  0  0  0
   -0.6073    1.2994    0.0000 C   0  0  0  0  0  0  0  0  0  0  0  0
   -0.6073    0.4744    0.0000 O   0  0  0  0  0  0  0  0  0  0  0  0
    0.1072    1.7119    0.0000 O   0  0  0  0  0  0  0  0  0  0  0  0
    0.8216    1.2994    0.0000 C   0  0  0  0  0  0  0  0  0  0  0  0
    1.5361    1.7119    0.0000 C   0  0  0  0  0  0  0  0  0  0  0  0
    2.2506    1.2994    0.0000 N   0  0  0  0  0  0  0  0  0  0  0  0
    2.9651    1.7119    0.0000 C   0  0  0  0  0  0  0  0  0  0  0  0
    3.6795    2.1244    0.0000 O   0  0  0  0  0  0  0  0  0  0  0  0
  1  2  1  0
  2  3  2  0
  2  4  1  0
  4  5  2  0
  4  6  1  0
  6  7  1  0
  7  8  1  0
  8  9  1  0
  9 10  2  0
 10 11  2  0
M  END
>  <name>  (65) 
2-Isocyanatoethyl methacrylate

>  <Outcome>  (65) 
1

>  <SMILES>  (65) 
C=C(C)C(=O)OCCN=C=O

$$$$

     RDKit          2D

 11 10  0  0  0  0  0  0  0  0999 V2000
   -0.6056   -3.2990    0.0000 C   0  0  0  0  0  0  0  0  0  0  0  0
   -0.6056   -2.4740    0.0000 C   0  0  0  0  0  0  0  0  0  0  0  0
   -1.3201   -2.0615    0.0000 C   0  0  0  0  0  0  0  0  0  0  0  0
    0.1088   -2.0615    0.0000 C   0  0  0  0  0  0  0  0  0  0  0  0
    0.8233   -2.4740    0.0000 O   0  0  0  0  0  0  0  0  0  0  0  0
    0.1088   -1.2365    0.0000 O   0  0  0  0  0  0  0  0  0  0  0  0
    0.8233   -0.8240    0.0000 C   0  0  0  0  0  0  0  0  0  0  0  0
    0.8233    0.0010    0.0000 C   0  0  0  0  0  0  0  0  0  0  0  0
    0.8233    0.8260    0.0000 F   0  0  0  0  0  0  0  0  0  0  0  0
    1.6483    0.0010    0.0000 F   0  0  0  0  0  0  0  0  0  0  0  0
   -0.0017    0.0010    0.0000 F   0  0  0  0  0  0  0  0  0  0  0  0
  1  2  2  0
  2  3  1  0
  2  4  1  0
  4  5  2  0
  4  6  1  0
  6  7  1  0
  7  8  1  0
  8  9  1  0
  8 10  1  0
  8 11  1  0
M  END
>  <name>  (66) 
2,2,2-trifluoroethyl methacrylate

>  <Outcome>  (66) 
1

>  <SMILES>  (66) 
C=C(C)C(=O)OCC(F)(F)F

$$$$

     RDKit          2D

  3  2  0  0  0  0  0  0  0  0999 V2000
    2.3767   -1.2031    0.0000 C   0  0  0  0  0  0  0  0  0  0  0  0
    1.9642   -0.4886    0.0000 N   0  0  0  0  0  0  0  0  0  0  0  0
    1.1392   -0.4886    0.0000 N   0  0  0  0  0  0  0  0  0  0  0  0
  1  2  1  0
  2  3  1  0
M  END
>  <name>  (67) 
methylhydrazine

>  <Outcome>  (67) 
1

>  <SMILES>  (67) 
CNN

$$$$

     RDKit          2D

 28 27  0  0  0  0  0  0  0  0999 V2000
   -3.7023    0.1808    0.0000 C   0  0  0  0  0  0  0  0  0  0  0  0
   -2.9879    0.5933    0.0000 C   0  0  0  0  0  0  0  0  0  0  0  0
   -2.2734    0.1808    0.0000 O   0  0  0  0  0  0  0  0  0  0  0  0
   -1.5589    0.5933    0.0000 Si  0  0  0  0  0  4  0  0  0  0  0  0
   -0.8445    1.0058    0.0000 C   0  0  0  0  0  0  0  0  0  0  0  0
   -0.1300    0.5933    0.0000 C   0  0  0  0  0  0  0  0  0  0  0  0
    0.5845    1.0058    0.0000 C   0  0  0  0  0  0  0  0  0  0  0  0
    1.2990    0.5933    0.0000 S   0  0  0  0  0  0  0  0  0  0  0  0
    2.0134    1.0058    0.0000 S   0  0  0  0  0  0  0  0  0  0  0  0
    2.7279    0.5933    0.0000 C   0  0  0  0  0  0  0  0  0  0  0  0
    3.4424    1.0058    0.0000 C   0  0  0  0  0  0  0  0  0  0  0  0
    4.1568    0.5933    0.0000 C   0  0  0  0  0  0  0  0  0  0  0  0
    4.8713    1.0058    0.0000 Si  0  0  0  0  0  4  0  0  0  0  0  0
    5.5858    1.4183    0.0000 O   0  0  0  0  0  0  0  0  0  0  0  0
    6.3003    1.0058    0.0000 C   0  0  0  0  0  0  0  0  0  0  0  0
    7.0147    1.4183    0.0000 C   0  0  0  0  0  0  0  0  0  0  0  0
    5.2838    0.2914    0.0000 O   0  0  0  0  0  0  0  0  0  0  0  0
    6.1088    0.2914    0.0000 C   0  0  0  0  0  0  0  0  0  0  0  0
    6.5213   -0.4231    0.0000 C   0  0  0  0  0  0  0  0  0  0  0  0
    4.4588    1.7203    0.0000 O   0  0  0  0  0  0  0  0  0  0  0  0
    4.8713    2.4348    0.0000 C   0  0  0  0  0  0  0  0  0  0  0  0
    5.6963    2.4348    0.0000 C   0  0  0  0  0  0  0  0  0  0  0  0
   -1.1464   -0.1211    0.0000 O   0  0  0  0  0  0  0  0  0  0  0  0
   -0.3214   -0.1211    0.0000 C   0  0  0  0  0  0  0  0  0  0  0  0
    0.0911   -0.8356    0.0000 C   0  0  0  0  0  0  0  0  0  0  0  0
   -1.9714    1.3078    0.0000 O   0  0  0  0  0  0  0  0  0  0  0  0
   -1.5589    2.0223    0.0000 C   0  0  0  0  0  0  0  0  0  0  0  0
   -0.7339    2.0223    0.0000 C   0  0  0  0  0  0  0  0  0  0  0  0
  1  2  1  0
  2  3  1  0
  3  4  1  0
  4  5  1  0
  5  6  1  0
  6  7  1  0
  7  8  1  0
  8  9  1  0
  9 10  1  0
 10 11  1  0
 11 12  1  0
 12 13  1  0
 13 14  1  0
 14 15  1  0
 15 16  1  0
 13 17  1  0
 17 18  1  0
 18 19  1  0
 13 20  1  0
 20 21  1  0
 21 22  1  0
  4 23  1  0
 23 24  1  0
 24 25  1  0
  4 26  1  0
 26 27  1  0
 27 28  1  0
M  END
>  <name>  (68) 
4,4,13,13-tetraethoxy-3,14-dioxa-8,9-dithia-4,13-disilahexadecane

>  <Outcome>  (68) 
0

>  <SMILES>  (68) 
CCO[Si](CCCSSCCC[Si](OCC)(OCC)OCC)(OCC)OCC

$$$$

     RDKit          2D

  5  4  0  0  0  0  0  0  0  0999 V2000
    0.8250   -0.8250    0.0000 C   0  0  0  0  0  0  0  0  0  0  0  0
    0.8250    0.0000    0.0000 Si  0  0  0  0  0  4  0  0  0  0  0  0
    0.8250    0.8250    0.0000 C   0  0  0  0  0  0  0  0  0  0  0  0
    1.6500   -0.0000    0.0000 C   0  0  0  0  0  0  0  0  0  0  0  0
    0.0000    0.0000    0.0000 C   0  0  0  0  0  0  0  0  0  0  0  0
  1  2  1  0
  2  3  1  0
  2  4  1  0
  2  5  1  0
M  END
>  <name>  (69) 
tetramethylsilane

>  <Outcome>  (69) 
0

>  <SMILES>  (69) 
C[Si](C)(C)C

$$$$

     RDKit          2D

 14 14  0  0  0  0  0  0  0  0999 V2000
   10.2760    5.1962    0.0000 C   0  0  0  0  0  0  0  0  0  0  0  0
    9.5260    3.8971    0.0000 C   0  0  0  0  0  0  0  0  0  0  0  0
    8.0260    3.8971    0.0000 C   0  0  0  0  0  0  0  0  0  0  0  0
    7.2760    2.5981    0.0000 C   0  0  0  0  0  0  0  0  0  0  0  0
    5.7760    2.5981    0.0000 C   0  0  0  0  0  0  0  0  0  0  0  0
    5.0260    1.2990    0.0000 C   0  0  0  0  0  0  0  0  0  0  0  0
    3.5260    1.2990    0.0000 C   0  0  0  0  0  0  0  0  0  0  0  0
    2.7760    0.0000    0.0000 C   0  0  0  0  0  0  0  0  0  0  0  0
    1.2760    0.0000    0.0000 N   0  0  0  0  0  0  0  0  0  0  0  0
    0.3943    1.2135    0.0000 C   0  0  0  0  0  0  0  0  0  0  0  0
   -1.0323    0.7500    0.0000 C   0  0  0  0  0  0  0  0  0  0  0  0
   -1.0323   -0.7500    0.0000 C   0  0  0  0  0  0  0  0  0  0  0  0
    0.3943   -1.2135    0.0000 C   0  0  0  0  0  0  0  0  0  0  0  0
    0.8578   -2.6401    0.0000 O   0  0  0  0  0  0  0  0  0  0  0  0
  1  2  1  0
  2  3  1  0
  3  4  1  0
  4  5  1  0
  5  6  1  0
  6  7  1  0
  7  8  1  0
  8  9  1  0
  9 10  1  0
 10 11  1  0
 11 12  1  0
 12 13  1  0
 13 14  2  0
 13  9  1  0
M  END
>  <name>  (70) 
1-octylpyrrolidin-2-one

>  <Outcome>  (70) 
2

>  <SMILES>  (70) 
CCCCCCCCN1CCCC1=O

$$$$

     RDKit          2D

 10  9  0  0  0  0  0  0  0  0999 V2000
    3.2846    1.4475    0.0000 C   0  0  0  0  0  0  0  0  0  0  0  0
    2.4596    1.4475    0.0000 C   0  0  0  0  0  0  0  0  0  0  0  0
    2.0471    2.1619    0.0000 O   0  0  0  0  0  0  0  0  0  0  0  0
    2.0471    0.7330    0.0000 O   0  0  0  0  0  0  0  0  0  0  0  0
    1.2221    0.7330    0.0000 C   0  0  0  0  0  0  0  0  0  0  0  0
    0.8096    0.0185    0.0000 C   0  0  0  0  0  0  0  0  0  0  0  0
   -0.0154    0.0185    0.0000 C   0  0  0  0  0  0  0  0  0  0  0  0
   -0.4279    0.7330    0.0000 C   0  0  0  0  0  0  0  0  0  0  0  0
   -0.4279   -0.6960    0.0000 C   0  0  0  0  0  0  0  0  0  0  0  0
   -0.0154   -1.4104    0.0000 O   0  0  0  0  0  0  0  0  0  0  0  0
  1  2  1  0
  2  3  2  0
  2  4  1  0
  4  5  1  0
  6  5  1  0
  6  7  2  3
  7  8  1  0
  7  9  1  0
  9 10  2  0
M  END
>  <name>  (71) 
3-methyl-4-oxobut-2-en-1-yl acetate

>  <Outcome>  (71) 
1

>  <SMILES>  (71) 
CC(=O)OCC=C(C)C=O

$$$$

     RDKit          2D

 11  6  0  0  0  0  0  0  0  0999 V2000
    0.0000    0.0000    0.0000 N   0  0  0  0  0  4  0  0  0  0  0  0
   -0.0000   -1.5000    0.0000 O   0  0  0  0  0  0  0  0  0  0  0  0
    1.2990    0.7500    0.0000 O   0  0  0  0  0  1  0  0  0  0  0  0
   -1.2990    0.7500    0.0000 O   0  0  0  0  0  1  0  0  0  0  0  0
    0.0000    3.2500    0.0000 N   0  0  0  0  0  4  0  0  0  0  0  0
   -0.0000    1.7500    0.0000 O   0  0  0  0  0  0  0  0  0  0  0  0
    1.2990    4.0000    0.0000 O   0  0  0  0  0  1  0  0  0  0  0  0
   -1.2990    4.0000    0.0000 O   0  0  0  0  0  1  0  0  0  0  0  0
    2.2990    0.0000    0.0000 O   0  0  0  0  0  0  0  0  0  0  0  0
    3.2990    0.0000    0.0000 O   0  0  0  0  0  0  0  0  0  0  0  0
    4.2990    0.0000    0.0000 Pd  0  0  0  0  0 15  0  0  0  0  0  0
  1  2  2  0
  1  3  1  0
  1  4  1  0
  5  6  2  0
  5  7  1  0
  5  8  1  0
M  CHG  7   1   1   3  -1   4  -1   5   1   7  -1   8  -1  11   2
M  END
>  <name>  (72) 
palladium(2+);dinitrate;dihydrate

>  <Outcome>  (72) 
2

>  <SMILES>  (72) 
O.O.O=[N+]([O-])[O-].O=[N+]([O-])[O-].[Pd+2]

$$$$

     RDKit          2D

  2  1  0  0  0  0  0  0  0  0999 V2000
    0.0000    0.0000    0.0000 S   0  0  0  0  0  0  0  0  0  0  0  0
    1.2990    0.7500    0.0000 Sr  0  0  0  0  0  2  0  0  0  0  0  0
  1  2  2  0
M  END
>  <name>  (73) 
sulfanylidenestrontium

>  <Outcome>  (73) 
2

>  <SMILES>  (73) 
S=[Sr]

$$$$

     RDKit          2D

  5  4  0  0  0  0  0  0  0  0999 V2000
    1.2567   -0.1548    0.0000 C   0  0  0  0  0  0  0  0  0  0  0  0
    0.4317   -0.1548    0.0000 C   0  0  0  0  0  0  0  0  0  0  0  0
    0.0192   -0.8693    0.0000 Cl  0  0  0  0  0  0  0  0  0  0  0  0
    0.0192    0.5597    0.0000 C   0  0  0  0  0  0  0  0  0  0  0  0
   -0.8058    0.5597    0.0000 Cl  0  0  0  0  0  0  0  0  0  0  0  0
  1  2  1  0
  2  3  1  0
  2  4  1  0
  4  5  1  0
M  END
>  <name>  (74) 
1,2-Dichloropropane

>  <Outcome>  (74) 
1

>  <SMILES>  (74) 
CC(Cl)CCl

$$$$

     RDKit          2D

  6  6  0  0  0  0  0  0  0  0999 V2000
    0.7145    1.2375    0.0000 C   0  0  0  0  0  0  0  0  0  0  0  0
    1.4289    0.8250    0.0000 C   0  0  0  0  0  0  0  0  0  0  0  0
    1.4289   -0.0000    0.0000 C   0  0  0  0  0  0  0  0  0  0  0  0
    0.7145   -0.4125    0.0000 N   0  0  0  0  0  0  0  0  0  0  0  0
   -0.0000   -0.0000    0.0000 C   0  0  0  0  0  0  0  0  0  0  0  0
   -0.0000    0.8250    0.0000 C   0  0  0  0  0  0  0  0  0  0  0  0
  1  2  2  0
  2  3  1  0
  3  4  2  0
  4  5  1  0
  5  6  2  0
  1  6  1  0
M  END
>  <name>  (75) 
pyridine

>  <Outcome>  (75) 
1

>  <SMILES>  (75) 
c1ccncc1

$$$$

     RDKit          2D

 10 10  0  0  0  0  0  0  0  0999 V2000
    0.7145    2.0625    0.0000 N   0  0  0  0  0  0  0  0  0  0  0  0
    0.7145    1.2375    0.0000 C   0  0  0  0  0  0  0  0  0  0  0  0
    1.4289    0.8250    0.0000 C   0  0  0  0  0  0  0  0  0  0  0  0
    1.4289   -0.0000    0.0000 C   0  0  0  0  0  0  0  0  0  0  0  0
    0.7145   -0.4125    0.0000 C   0  0  0  0  0  0  0  0  0  0  0  0
    0.0000   -0.0000    0.0000 C   0  0  0  0  0  0  0  0  0  0  0  0
    0.0000    0.8250    0.0000 C   0  0  0  0  0  0  0  0  0  0  0  0
   -0.7145    1.2375    0.0000 N   0  0  0  0  0  0  0  0  0  0  0  0
   -1.4289    0.8250    0.0000 O   0  0  0  0  0  0  0  0  0  0  0  0
   -0.7145    2.0625    0.0000 O   0  0  0  0  0  0  0  0  0  0  0  0
  1  2  1  0
  2  3  2  0
  3  4  1  0
  4  5  2  0
  5  6  1  0
  6  7  2  0
  2  7  1  0
  7  8  1  0
  8  9  1  0
  8 10  2  0
M  CHG  2   8   1   9  -1
M  END
>  <name>  (76) 
2-nitroaniline

>  <Outcome>  (76) 
0

>  <SMILES>  (76) 
Nc1ccccc1[N+](=O)[O-]

$$$$

     RDKit          2D

  2  1  0  0  0  0  0  0  0  0999 V2000
    0.0000    0.0000    0.0000 C   0  0  0  0  0  0  0  0  0  0  0  0
    1.2990    0.7500    0.0000 Br  0  0  0  0  0  0  0  0  0  0  0  0
  1  2  1  0
M  END
>  <name>  (77) 
bromomethane

>  <Outcome>  (77) 
2

>  <SMILES>  (77) 
CBr

$$$$

     RDKit          2D

 29 35  0  0  0  0  0  0  0  0999 V2000
    2.6289   -3.9381    0.0000 C   0  0  0  0  0  0  0  0  0  0  0  0
    3.7437   -2.9344    0.0000 O   0  0  0  0  0  0  0  0  0  0  0  0
    3.4318   -1.4672    0.0000 C   0  0  0  0  0  0  0  0  0  0  0  0
    4.5465   -0.4635    0.0000 C   0  0  0  0  0  0  0  0  0  0  0  0
    4.2346    1.0037    0.0000 C   0  0  0  0  0  0  0  0  0  0  0  0
    2.8081    1.4672    0.0000 C   0  0  0  0  0  0  0  0  0  0  0  0
    1.6933    0.4635    0.0000 C   0  0  0  0  0  0  0  0  0  0  0  0
    2.0052   -1.0037    0.0000 C   0  0  0  0  0  0  0  0  0  0  0  0
    0.3943    1.2135    0.0000 C   0  0  0  0  0  0  0  0  0  0  0  0
   -0.3694    0.1624    0.0000 C   0  0  0  0  0  0  0  0  0  0  0  0
   -0.2686    0.3011    0.0000 C   0  0  0  0  0  0  0  0  0  0  0  0
   -1.0323   -0.7500    0.0000 N   0  0  0  0  0  0  0  0  0  0  0  0
   -1.0323    0.7500    0.0000 C   0  0  0  0  0  0  0  0  0  0  0  0
   -2.1470    1.7537    0.0000 C   0  0  0  0  0  0  0  0  0  0  0  0
   -1.8351    3.2209    0.0000 C   0  0  0  0  0  0  0  0  0  0  0  0
   -0.4086    3.6844    0.0000 C   0  0  0  0  0  0  0  0  0  0  0  0
    0.7062    2.6807    0.0000 C   0  0  0  0  0  0  0  0  0  0  0  0
    2.1979    2.8375    0.0000 N   0  0  0  0  0  0  0  0  0  0  0  0
    2.5994    4.3174    0.0000 C   0  0  0  0  0  0  0  0  0  0  0  0
    4.0626    4.6479    0.0000 O   0  0  0  0  0  0  0  0  0  0  0  0
    1.5817    5.4193    0.0000 C   0  0  0  0  0  0  0  0  0  0  0  0
    0.1185    5.0888    0.0000 C   0  0  0  0  0  0  0  0  0  0  0  0
   -0.6508    6.3765    0.0000 O   0  0  0  0  0  0  0  0  0  0  0  0
   -2.1373    6.5778    0.0000 C   0  0  0  0  0  0  0  0  0  0  0  0
   -3.2215    5.5412    0.0000 C   0  0  0  0  0  0  0  0  0  0  0  0
   -3.0870    4.0473    0.0000 C   0  0  0  0  0  0  0  0  0  0  0  0
   -2.2332    0.1488    0.0000 C   0  0  0  0  0  0  0  0  0  0  0  0
    5.9731   -0.9271    0.0000 O   0  0  0  0  0  0  0  0  0  0  0  0
    7.0878    0.0766    0.0000 C   0  0  0  0  0  0  0  0  0  0  0  0
  1  2  1  0
  2  3  1  0
  3  4  2  0
  4  5  1  0
  5  6  2  0
  6  7  1  0
  7  8  2  0
  7  9  1  0
  9 10  1  0
 10 11  1  0
 11 12  1  0
 12 13  1  0
 13 14  1  0
 14 15  1  0
 15 16  1  0
 16 17  1  0
 17 18  1  0
 18 19  1  0
 19 20  2  0
 19 21  1  0
 21 22  1  0
 22 23  1  0
 23 24  1  0
 24 25  1  0
 25 26  2  0
 26 27  1  0
  4 28  1  0
 28 29  1  0
  8  3  1  0
 18  6  1  0
 13  9  1  0
 17  9  1  0
 27 12  1  0
 26 15  1  0
 22 16  1  0
M  END
>  <name>  (78) 
(4aR,5aS,8aR,13aS,15aS,15bR)-10,11-dimethoxy-4a,5,5a,7,8,13a,15,15a,15b,16-decahydro-2H-4,6-methanoindolo[3,2,1-ij]oxepino[2,3,4-de]pyrrolo[2,3-h]quinolin-14-one

>  <Outcome>  (78) 
2

>  <SMILES>  (78) 
COc1cc2c(cc1OC)C13CCN4CC5=CCOC6CC(=O)N2C1C6C5CC43

$$$$

     RDKit          2D

  9  8  0  0  0  0  0  0  0  0999 V2000
   -0.4817   -0.1679    0.0000 C   0  0  0  0  0  0  0  0  0  0  0  0
    0.2328    0.2446    0.0000 Si  0  0  0  0  0  4  0  0  0  0  0  0
    0.6453   -0.4699    0.0000 C   0  0  0  0  0  0  0  0  0  0  0  0
   -0.1797    0.9590    0.0000 C   0  0  0  0  0  0  0  0  0  0  0  0
    0.9473    0.6571    0.0000 N   0  0  0  0  0  0  0  0  0  0  0  0
    0.9473    1.4821    0.0000 Si  0  0  0  0  0  4  0  0  0  0  0  0
    0.9473    2.3071    0.0000 C   0  0  0  0  0  0  0  0  0  0  0  0
    1.7723    1.4821    0.0000 C   0  0  0  0  0  0  0  0  0  0  0  0
    0.1223    1.4821    0.0000 C   0  0  0  0  0  0  0  0  0  0  0  0
  1  2  1  0
  2  3  1  0
  2  4  1  0
  2  5  1  0
  5  6  1  0
  6  7  1  0
  6  8  1  0
  6  9  1  0
M  END
>  <name>  (79) 
Silanamine, 1,1,1-trimethyl-N-(trimethylsilyl)-, sodium salt

>  <Outcome>  (79) 
1

>  <SMILES>  (79) 
C[Si](C)(C)N[Si](C)(C)C

$$$$

     RDKit          2D

  6  5  0  0  0  0  0  0  0  0999 V2000
    0.8220   -1.4340    0.0000 O   0  0  0  0  0  0  0  0  0  0  0  0
    1.2345   -0.7195    0.0000 C   0  0  0  0  0  0  0  0  0  0  0  0
    2.0595   -0.7195    0.0000 C   0  0  0  0  0  0  0  0  0  0  0  0
    2.4720   -1.4340    0.0000 O   0  0  0  0  0  0  0  0  0  0  0  0
    0.8220   -0.0051    0.0000 C   0  0  0  0  0  0  0  0  0  0  0  0
   -0.0030   -0.0051    0.0000 O   0  0  0  0  0  0  0  0  0  0  0  0
  1  2  2  0
  2  3  1  0
  3  4  1  0
  2  5  1  0
  5  6  1  0
M  END
>  <name>  (80) 
1,3-dihydroxypropan-2-one

>  <Outcome>  (80) 
0

>  <SMILES>  (80) 
O=C(CO)CO

$$$$

     RDKit          2D

 22 22  0  0  0  0  0  0  0  0999 V2000
    5.0013  -10.3131    0.0000 C   0  0  0  0  0  0  0  0  0  0  0  0
    5.7158   -9.9006    0.0000 C   0  0  0  0  0  0  0  0  0  0  0  0
    6.4302  -10.3131    0.0000 C   0  0  0  0  0  0  0  0  0  0  0  0
    7.1447   -9.9006    0.0000 C   0  0  0  0  0  0  0  0  0  0  0  0
    7.8592  -10.3131    0.0000 C   0  0  0  0  0  0  0  0  0  0  0  0
    8.5737   -9.9006    0.0000 C   0  0  0  0  0  0  0  0  0  0  0  0
    9.2881  -10.3131    0.0000 C   0  0  0  0  0  0  0  0  0  0  0  0
   10.0026   -9.9006    0.0000 C   0  0  0  0  0  0  0  0  0  0  0  0
   10.7171  -10.3131    0.0000 C   0  0  0  0  0  0  0  0  0  0  0  0
   11.4315   -9.9006    0.0000 C   0  0  0  0  0  0  0  0  0  0  0  0
   12.1460  -10.3131    0.0000 C   0  0  0  0  0  0  0  0  0  0  0  0
   12.8605   -9.9006    0.0000 C   0  0  0  0  0  0  0  0  0  0  0  0
   13.5750  -10.3131    0.0000 C   0  0  0  0  0  0  0  0  0  0  0  0
   14.2894   -9.9006    0.0000 C   0  0  0  0  0  0  0  0  0  0  0  0
   15.0039  -10.3131    0.0000 C   0  0  0  0  0  0  0  0  0  0  0  0
   15.7184   -9.9006    0.0000 C   0  0  0  0  0  0  0  0  0  0  0  0
   16.4328  -10.3131    0.0000 N   0  0  0  0  0  0  0  0  0  0  0  0
   17.1473   -9.9006    0.0000 C   0  0  0  0  0  0  0  0  0  0  0  0
   17.8618  -10.3131    0.0000 C   0  0  0  0  0  0  0  0  0  0  0  0
   17.8618  -11.1381    0.0000 C   0  0  0  0  0  0  0  0  0  0  0  0
   17.1473  -11.5506    0.0000 C   0  0  0  0  0  0  0  0  0  0  0  0
   16.4328  -11.1381    0.0000 C   0  0  0  0  0  0  0  0  0  0  0  0
  1  2  1  0
  2  3  1  0
  3  4  1  0
  4  5  1  0
  5  6  1  0
  6  7  1  0
  7  8  1  0
  8  9  1  0
  9 10  1  0
 10 11  1  0
 11 12  1  0
 12 13  1  0
 13 14  1  0
 14 15  1  0
 15 16  1  0
 16 17  1  0
 17 18  2  0
 18 19  1  0
 19 20  2  0
 20 21  1  0
 21 22  2  0
 17 22  1  0
M  CHG  1  17   1
M  END
>  <name>  (81) 
1-hexadecylpyridinium chloride

>  <Outcome>  (81) 
1

>  <SMILES>  (81) 
CCCCCCCCCCCCCCCC[n+]1ccccc1

$$$$

     RDKit          2D

 15 14  0  0  0  0  0  0  0  0999 V2000
    0.0000    0.0000    0.0000 C   0  0  0  0  0  0  0  0  0  0  0  0
    1.2990    0.7500    0.0000 C   0  0  0  0  0  0  0  0  0  0  0  0
    2.5981   -0.0000    0.0000 C   0  0  0  0  0  0  0  0  0  0  0  0
    3.8971   -0.7500    0.0000 C   0  0  0  0  0  0  0  0  0  0  0  0
    5.1962   -1.5000    0.0000 C   0  0  0  0  0  0  0  0  0  0  0  0
    6.4952   -2.2500    0.0000 C   0  0  0  0  0  0  0  0  0  0  0  0
    7.7942   -3.0000    0.0000 F   0  0  0  0  0  0  0  0  0  0  0  0
    5.7452   -3.5490    0.0000 F   0  0  0  0  0  0  0  0  0  0  0  0
    7.2452   -0.9510    0.0000 I   0  0  0  0  0  0  0  0  0  0  0  0
    5.9462   -0.2010    0.0000 F   0  0  0  0  0  0  0  0  0  0  0  0
    4.4462   -2.7990    0.0000 F   0  0  0  0  0  0  0  0  0  0  0  0
    3.1471   -2.0490    0.0000 F   0  0  0  0  0  0  0  0  0  0  0  0
    4.6471    0.5490    0.0000 F   0  0  0  0  0  0  0  0  0  0  0  0
    3.3481    1.2990    0.0000 F   0  0  0  0  0  0  0  0  0  0  0  0
    1.8481   -1.2990    0.0000 F   0  0  0  0  0  0  0  0  0  0  0  0
  1  2  2  0
  2  3  1  0
  3  4  1  0
  4  5  1  0
  5  6  1  0
  6  7  1  0
  6  8  1  0
  6  9  1  0
  5 10  1  0
  5 11  1  0
  4 12  1  0
  4 13  1  0
  3 14  1  0
  3 15  1  0
M  END
>  <name>  (82) 
3,3,4,4,5,5,6,6-octafluoro-6-iodohex-1-ene

>  <Outcome>  (82) 
2

>  <SMILES>  (82) 
C=CC(F)(F)C(F)(F)C(F)(F)C(F)(F)I

$$$$

     RDKit          2D

  7  7  0  0  0  0  0  0  0  0999 V2000
    1.9580    1.3463    0.0000 C   0  0  0  0  0  0  0  0  0  0  0  0
    1.2435    0.9338    0.0000 N   0  0  0  0  0  0  0  0  0  0  0  0
    1.2435    0.1088    0.0000 C   0  0  0  0  0  0  0  0  0  0  0  0
    0.5290   -0.3037    0.0000 C   0  0  0  0  0  0  0  0  0  0  0  0
   -0.1854    0.1088    0.0000 C   0  0  0  0  0  0  0  0  0  0  0  0
   -0.1854    0.9338    0.0000 C   0  0  0  0  0  0  0  0  0  0  0  0
    0.5290    1.3463    0.0000 C   0  0  0  0  0  0  0  0  0  0  0  0
  1  2  1  0
  2  3  1  0
  3  4  1  0
  4  5  1  0
  5  6  1  0
  6  7  1  0
  2  7  1  0
M  END
>  <name>  (83) 
1-methylpiperidine

>  <Outcome>  (83) 
1

>  <SMILES>  (83) 
CN1CCCCC1

$$$$

     RDKit          2D

  8  8  0  0  0  0  0  0  0  0999 V2000
    0.0000    2.4750    0.0000 O   0  0  0  0  0  0  0  0  0  0  0  0
    0.7145    2.0625    0.0000 C   0  0  0  0  0  0  0  0  0  0  0  0
    0.7145    1.2375    0.0000 C   0  0  0  0  0  0  0  0  0  0  0  0
    1.4289    0.8250    0.0000 C   0  0  0  0  0  0  0  0  0  0  0  0
    1.4289    0.0000    0.0000 C   0  0  0  0  0  0  0  0  0  0  0  0
    0.7145   -0.4125    0.0000 C   0  0  0  0  0  0  0  0  0  0  0  0
    0.0000    0.0000    0.0000 C   0  0  0  0  0  0  0  0  0  0  0  0
    0.0000    0.8250    0.0000 N   0  0  0  0  0  0  0  0  0  0  0  0
  1  2  2  0
  2  3  1  0
  3  4  2  0
  4  5  1  0
  5  6  2  0
  6  7  1  0
  7  8  2  0
  3  8  1  0
M  END
>  <name>  (84) 
pyridine-2-carbaldehyde

>  <Outcome>  (84) 
1

>  <SMILES>  (84) 
O=Cc1ccccn1

$$$$

     RDKit          2D

  5  5  0  0  0  0  0  0  0  0999 V2000
    0.8660    0.0000    0.0000 C   0  0  0  0  0  0  0  0  0  0  0  0
   -0.4330    0.7500    0.0000 C   0  0  0  0  0  0  0  0  0  0  0  0
   -0.4330   -0.7500    0.0000 O   0  0  0  0  0  0  0  0  0  0  0  0
   -1.1830    2.0490    0.0000 C   0  0  0  0  0  0  0  0  0  0  0  0
   -0.4330    3.3481    0.0000 O   0  0  0  0  0  0  0  0  0  0  0  0
  1  2  1  0
  2  3  1  0
  2  4  1  0
  4  5  2  0
  3  1  1  0
M  END
>  <name>  (85) 
oxirane-2-carbaldehyde

>  <Outcome>  (85) 
2

>  <SMILES>  (85) 
O=CC1CO1

$$$$

     RDKit          2D

  7  7  0  0  0  0  0  0  0  0999 V2000
    0.7145    2.0625    0.0000 C   0  0  0  0  0  0  0  0  0  0  0  0
    0.7145    1.2375    0.0000 C   0  0  0  0  0  0  0  0  0  0  0  0
    1.4289    0.8250    0.0000 C   0  0  0  0  0  0  0  0  0  0  0  0
    1.4289    0.0000    0.0000 C   0  0  0  0  0  0  0  0  0  0  0  0
    0.7145   -0.4125    0.0000 C   0  0  0  0  0  0  0  0  0  0  0  0
    0.0000    0.0000    0.0000 N   0  0  0  0  0  0  0  0  0  0  0  0
    0.0000    0.8250    0.0000 C   0  0  0  0  0  0  0  0  0  0  0  0
  1  2  1  0
  2  3  2  0
  3  4  1  0
  4  5  2  0
  5  6  1  0
  6  7  2  0
  2  7  1  0
M  END
>  <name>  (86) 
3-methylpyridine

>  <Outcome>  (86) 
1

>  <SMILES>  (86) 
Cc1cccnc1

$$$$

     RDKit          2D

  5  3  0  0  0  0  0  0  0  0999 V2000
    0.0000    0.0000    0.0000 O   0  0  0  0  0  1  0  0  0  0  0  0
    1.2990    0.7500    0.0000 Se  0  0  0  0  0  4  0  0  0  0  0  0
    1.2990    2.2500    0.0000 O   0  0  0  0  0  0  0  0  0  0  0  0
    2.5981   -0.0000    0.0000 O   0  0  0  0  0  1  0  0  0  0  0  0
    0.0000    3.2500    0.0000 Ni  0  0  0  0  0 15  0  0  0  0  0  0
  1  2  1  0
  2  3  2  0
  2  4  1  0
M  CHG  3   1  -1   4  -1   5   2
M  END
>  <name>  (87) 
nickel(2+);selenite

>  <Outcome>  (87) 
2

>  <SMILES>  (87) 
O=[Se]([O-])[O-].[Ni+2]

$$$$

     RDKit          2D

 10  9  0  0  0  0  0  0  0  0999 V2000
   -1.3664   -3.6145    0.0000 C   0  0  0  0  0  0  0  0  0  0  0  0
   -0.6519   -3.2020    0.0000 C   0  0  0  0  0  0  0  0  0  0  0  0
   -0.6519   -2.3770    0.0000 O   0  0  0  0  0  0  0  0  0  0  0  0
    0.0626   -1.9645    0.0000 C   0  0  0  0  0  0  0  0  0  0  0  0
    0.0626   -1.1395    0.0000 C   0  0  0  0  0  0  0  0  0  0  0  0
    0.7771   -0.7270    0.0000 O   0  0  0  0  0  0  0  0  0  0  0  0
    0.7771    0.0980    0.0000 C   0  0  0  0  0  0  0  0  0  0  0  0
    0.7771    0.9230    0.0000 C   0  0  0  0  0  0  0  0  0  0  0  0
    1.6021    0.0980    0.0000 C   0  0  0  0  0  0  0  0  0  0  0  0
   -0.0479    0.0980    0.0000 C   0  0  0  0  0  0  0  0  0  0  0  0
  1  2  1  0
  2  3  1  0
  3  4  1  0
  4  5  1  0
  5  6  1  0
  6  7  1  0
  7  8  1  0
  7  9  1  0
  7 10  1  0
M  END
>  <name>  (88) 
2-(2-ethoxyethoxy)-2-methylpropane

>  <Outcome>  (88) 
1

>  <SMILES>  (88) 
CCOCCOC(C)(C)C

$$$$

     RDKit          2D

  7  6  0  0  0  0  0  0  0  0999 V2000
    1.7620    1.6005    0.0000 C   0  0  0  0  0  0  0  0  0  0  0  0
    1.3495    0.8861    0.0000 C   0  0  0  0  0  0  0  0  0  0  0  0
    0.6350    1.2986    0.0000 C   0  0  0  0  0  0  0  0  0  0  0  0
    2.0640    0.4736    0.0000 C   0  0  0  0  0  0  0  0  0  0  0  0
    0.9370    0.1716    0.0000 C   0  0  0  0  0  0  0  0  0  0  0  0
    1.3495   -0.5429    0.0000 O   0  0  0  0  0  0  0  0  0  0  0  0
    0.1120    0.1716    0.0000 O   0  0  0  0  0  0  0  0  0  0  0  0
  1  2  1  0
  2  3  1  0
  2  4  1  0
  2  5  1  0
  5  6  2  0
  5  7  1  0
M  END
>  <name>  (89) 
pivalic acid

>  <Outcome>  (89) 
0

>  <SMILES>  (89) 
CC(C)(C)C(=O)O

$$$$

     RDKit          2D

 24 27  0  0  0  0  0  0  0  0999 V2000
    2.7872   -2.7151    0.0000 O   0  0  0  0  0  0  0  0  0  0  0  0
    2.2352   -2.1020    0.0000 C   0  0  0  0  0  0  0  0  0  0  0  0
    1.4147   -2.1882    0.0000 O   0  0  0  0  0  0  0  0  0  0  0  0
    1.0791   -1.4345    0.0000 C   0  0  0  0  0  0  0  0  0  0  0  0
    0.2722   -1.2630    0.0000 O   0  0  0  0  0  0  0  0  0  0  0  0
    1.6922   -0.8825    0.0000 C   0  0  0  0  0  0  0  0  0  0  0  0
    1.6922   -0.0575    0.0000 C   0  0  0  0  0  0  0  0  0  0  0  0
    2.4067    0.3550    0.0000 C   0  0  0  0  0  0  0  0  0  0  0  0
    3.1212   -0.0575    0.0000 C   0  0  0  0  0  0  0  0  0  0  0  0
    3.1212   -0.8825    0.0000 C   0  0  0  0  0  0  0  0  0  0  0  0
    2.4067   -1.2950    0.0000 C   0  0  0  0  0  0  0  0  0  0  0  0
    2.4067    1.1800    0.0000 C   0  0  0  0  0  0  0  0  0  0  0  0
    3.1212    1.5925    0.0000 O   0  0  0  0  0  0  0  0  0  0  0  0
    1.6922    1.5925    0.0000 C   0  0  0  0  0  0  0  0  0  0  0  0
    1.6922    2.4175    0.0000 C   0  0  0  0  0  0  0  0  0  0  0  0
    0.9778    2.8300    0.0000 C   0  0  0  0  0  0  0  0  0  0  0  0
    0.2633    2.4175    0.0000 C   0  0  0  0  0  0  0  0  0  0  0  0
   -0.5213    2.6724    0.0000 C   0  0  0  0  0  0  0  0  0  0  0  0
   -0.7763    3.4571    0.0000 O   0  0  0  0  0  0  0  0  0  0  0  0
   -1.0063    2.0050    0.0000 O   0  0  0  0  0  0  0  0  0  0  0  0
   -0.5213    1.3376    0.0000 C   0  0  0  0  0  0  0  0  0  0  0  0
   -0.7763    0.5529    0.0000 O   0  0  0  0  0  0  0  0  0  0  0  0
    0.2633    1.5925    0.0000 C   0  0  0  0  0  0  0  0  0  0  0  0
    0.9778    1.1800    0.0000 C   0  0  0  0  0  0  0  0  0  0  0  0
  1  2  2  0
  3  2  1  0
  4  3  1  0
  4  5  2  0
  6  4  1  0
  6  7  2  0
  7  8  1  0
  8  9  2  0
  9 10  1  0
 10 11  2  0
  8 12  1  0
 12 13  2  0
 12 14  1  0
 15 14  2  0
 16 15  1  0
 17 16  2  0
 17 18  1  0
 18 19  2  0
 18 20  1  0
 20 21  1  0
 21 22  2  0
 21 23  1  0
 24 23  2  0
  2 11  1  0
 11  6  1  0
 14 24  1  0
 23 17  1  0
M  END
>  <name>  (90) 
Benzophenonetetracarboxylic dianhydride

>  <Outcome>  (90) 
1

>  <SMILES>  (90) 
O=C(c1ccc2c(c1)C(=O)OC2=O)c1ccc2c(c1)C(=O)OC2=O

$$$$

     RDKit          2D

  7  7  0  0  0  0  0  0  0  0999 V2000
    0.5678    1.9393    0.0000 C   0  0  0  0  0  0  0  0  0  0  0  0
    0.5678    1.1143    0.0000 C   0  0  0  0  0  0  0  0  0  0  0  0
    1.2352    0.6294    0.0000 N   0  0  0  0  0  0  0  0  0  0  0  0
    0.9803   -0.1553    0.0000 C   0  0  0  0  0  0  0  0  0  0  0  0
    0.1553   -0.1553    0.0000 C   0  0  0  0  0  0  0  0  0  0  0  0
   -0.0997    0.6294    0.0000 N   0  0  0  0  0  0  0  0  0  0  0  0
   -0.8843    0.8843    0.0000 C   0  0  0  0  0  0  0  0  0  0  0  0
  1  2  1  0
  2  3  2  0
  3  4  1  0
  4  5  2  0
  5  6  1  0
  2  6  1  0
  6  7  1  0
M  END
>  <name>  (91) 
1,2-dimethyl-1H-imidazole

>  <Outcome>  (91) 
1

>  <SMILES>  (91) 
Cc1nccn1C

$$$$

     RDKit          2D

 10 11  0  0  0  0  0  0  0  0999 V2000
   -1.7263    0.0708    0.0000 C   0  0  0  0  0  0  0  0  0  0  0  0
   -1.0119    0.4833    0.0000 C   0  0  0  0  0  0  0  0  0  0  0  0
   -0.2974    0.0708    0.0000 C   0  0  0  0  0  0  0  0  0  0  0  0
    0.4171    0.4833    0.0000 C   0  0  0  0  0  0  0  0  0  0  0  0
    1.1315    0.0708    0.0000 C   0  0  0  0  0  0  0  0  0  0  0  0
    1.1315   -0.7542    0.0000 C   0  0  0  0  0  0  0  0  0  0  0  0
    0.4171   -1.1667    0.0000 C   0  0  0  0  0  0  0  0  0  0  0  0
   -0.2974   -0.7542    0.0000 C   0  0  0  0  0  0  0  0  0  0  0  0
   -1.0119   -1.1667    0.0000 C   0  0  0  0  0  0  0  0  0  0  0  0
   -1.7263   -0.7542    0.0000 N   0  0  0  0  0  0  0  0  0  0  0  0
  2  1  1  0
  3  2  1  0
  3  4  2  0
  4  5  1  0
  5  6  2  0
  6  7  1  0
  7  8  2  0
  9  8  1  0
 10  9  1  0
  1 10  1  0
  8  3  1  0
M  END
>  <name>  (92) 
1,2,3,4-Tetrahydroisoquinoline

>  <Outcome>  (92) 
1

>  <SMILES>  (92) 
c1ccc2c(c1)CCNC2

$$$$

     RDKit          2D

 14 14  0  0  0  0  0  0  0  0999 V2000
   -0.7220    2.1155    0.0000 C   0  0  0  0  0  0  0  0  0  0  0  0
   -0.0075    2.5280    0.0000 C   0  0  0  0  0  0  0  0  0  0  0  0
    0.7070    2.1155    0.0000 C   0  0  0  0  0  0  0  0  0  0  0  0
    0.7070    1.2905    0.0000 C   0  0  0  0  0  0  0  0  0  0  0  0
    1.4214    0.8780    0.0000 C   0  0  0  0  0  0  0  0  0  0  0  0
    1.4214    0.0530    0.0000 C   0  0  0  0  0  0  0  0  0  0  0  0
    0.7070   -0.3595    0.0000 C   0  0  0  0  0  0  0  0  0  0  0  0
    0.7070   -1.1845    0.0000 C   0  0  0  0  0  0  0  0  0  0  0  0
   -0.0075    0.0530    0.0000 C   0  0  0  0  0  0  0  0  0  0  0  0
   -0.0075    0.8780    0.0000 C   0  0  0  0  0  0  0  0  0  0  0  0
   -0.0075    3.3530    0.0000 C   0  0  0  0  0  0  0  0  0  0  0  0
   -0.7220    3.7655    0.0000 C   0  0  0  0  0  0  0  0  0  0  0  0
   -0.7220    4.5905    0.0000 C   0  0  0  0  0  0  0  0  0  0  0  0
   -1.4364    5.0030    0.0000 O   0  0  0  0  0  0  0  0  0  0  0  0
  1  2  1  0
  2  3  2  3
  3  4  1  0
  4  5  2  0
  5  6  1  0
  6  7  2  0
  7  8  1  0
  7  9  1  0
  9 10  2  0
  4 10  1  0
  2 11  1  0
 11 12  1  0
 12 13  1  0
 13 14  2  0
M  END
>  <name>  (93) 
unnamed [1226911-69-8]

>  <Outcome>  (93) 
0

>  <SMILES>  (93) 
CC(=Cc1ccc(C)cc1)CCC=O

$$$$

     RDKit          2D

  9  9  0  0  0  0  0  0  0  0999 V2000
    1.2760    0.0000    0.0000 C   0  0  0  0  0  0  0  0  0  0  0  0
    0.3943    1.2135    0.0000 C   0  0  0  0  0  0  0  0  0  0  0  0
   -1.0323    0.7500    0.0000 C   0  0  0  0  0  0  0  0  0  0  0  0
   -1.0323   -0.7500    0.0000 O   0  0  0  0  0  0  0  0  0  0  0  0
    0.3943   -1.2135    0.0000 C   0  0  0  0  0  0  0  0  0  0  0  0
    0.8578   -2.6401    0.0000 C   0  0  0  0  0  0  0  0  0  0  0  0
   -0.1459   -3.7548    0.0000 O   0  0  0  0  0  0  0  0  0  0  0  0
   -2.2458    1.6317    0.0000 C   0  0  0  0  0  0  0  0  0  0  0  0
   -2.0890    3.1235    0.0000 O   0  0  0  0  0  0  0  0  0  0  0  0
  1  2  1  0
  2  3  1  0
  3  4  1  0
  4  5  1  0
  5  6  1  0
  6  7  1  0
  3  8  1  0
  8  9  1  0
  5  1  1  0
M  END
>  <name>  (94) 
[5-(hydroxymethyl)oxolan-2-yl]methanol

>  <Outcome>  (94) 
2

>  <SMILES>  (94) 
OCC1CCC(CO)O1

$$$$

     RDKit          2D

 21 20  0  0  0  0  0  0  0  0999 V2000
   -0.6248   -5.1364    0.0000 C   0  0  0  0  0  0  0  0  0  0  0  0
   -1.3392   -4.7239    0.0000 C   0  0  0  0  0  0  0  0  0  0  0  0
   -2.0537   -5.1364    0.0000 C   0  0  0  0  0  0  0  0  0  0  0  0
   -2.7682   -5.5489    0.0000 C   0  0  0  0  0  0  0  0  0  0  0  0
   -1.6412   -5.8508    0.0000 C   0  0  0  0  0  0  0  0  0  0  0  0
   -2.4662   -4.4219    0.0000 C   0  0  0  0  0  0  0  0  0  0  0  0
   -1.3392   -3.8989    0.0000 C   0  0  0  0  0  0  0  0  0  0  0  0
   -0.5142   -3.8989    0.0000 C   0  0  0  0  0  0  0  0  0  0  0  0
   -2.1642   -3.8989    0.0000 C   0  0  0  0  0  0  0  0  0  0  0  0
   -1.3392   -3.0739    0.0000 S   0  0  0  0  0  0  0  0  0  0  0  0
   -0.6248   -2.6614    0.0000 S   0  0  0  0  0  0  0  0  0  0  0  0
   -0.6248   -1.8364    0.0000 S   0  0  0  0  0  0  0  0  0  0  0  0
    0.0897   -1.4239    0.0000 C   0  0  0  0  0  0  0  0  0  0  0  0
    0.5022   -2.1383    0.0000 C   0  0  0  0  0  0  0  0  0  0  0  0
   -0.3228   -0.7094    0.0000 C   0  0  0  0  0  0  0  0  0  0  0  0
    0.8042   -1.0114    0.0000 C   0  0  0  0  0  0  0  0  0  0  0  0
    1.5187   -1.4239    0.0000 C   0  0  0  0  0  0  0  0  0  0  0  0
    0.8042   -0.1864    0.0000 C   0  0  0  0  0  0  0  0  0  0  0  0
    0.8042    0.6386    0.0000 C   0  0  0  0  0  0  0  0  0  0  0  0
    1.6292   -0.1864    0.0000 C   0  0  0  0  0  0  0  0  0  0  0  0
   -0.0208   -0.1864    0.0000 C   0  0  0  0  0  0  0  0  0  0  0  0
  1  2  1  0
  2  3  1  0
  3  4  1  0
  3  5  1  0
  3  6  1  0
  2  7  1  0
  7  8  1  0
  7  9  1  0
  7 10  1  0
 10 11  1  0
 11 12  1  0
 12 13  1  0
 13 14  1  0
 13 15  1  0
 13 16  1  0
 16 17  1  0
 16 18  1  0
 18 19  1  0
 18 20  1  0
 18 21  1  0
M  END
>  <name>  (95) 
bis(2,3,4,4-tetramethylpentan-2-yl)trisulfane

>  <Outcome>  (95) 
0

>  <SMILES>  (95) 
CC(C(C)(C)C)C(C)(C)SSSC(C)(C)C(C)C(C)(C)C

$$$$

     RDKit          2D

  7  6  0  0  0  0  0  0  0  0999 V2000
    0.0000    0.0000    0.0000 C   0  0  0  0  0  0  0  0  0  0  0  0
    1.2990    0.7500    0.0000 C   0  0  0  0  0  0  0  0  0  0  0  0
    2.5981    1.5000    0.0000 C   0  0  0  0  0  0  0  0  0  0  0  0
    2.0490   -0.5490    0.0000 C   0  0  0  0  0  0  0  0  0  0  0  0
    0.5490    2.0490    0.0000 O   0  0  0  0  0  0  0  0  0  0  0  0
    1.2990    3.3481    0.0000 C   0  0  0  0  0  0  0  0  0  0  0  0
    0.5490    4.6471    0.0000 O   0  0  0  0  0  0  0  0  0  0  0  0
  1  2  1  0
  2  3  1  0
  2  4  1  0
  2  5  1  0
  5  6  1  0
  6  7  2  0
M  END
>  <name>  (96) 
tert-butyl formate

>  <Outcome>  (96) 
2

>  <SMILES>  (96) 
CC(C)(C)OC=O

$$$$

     RDKit          2D

  4  4  0  0  0  0  0  0  0  0999 V2000
    0.5194    1.7798    0.0000 C   0  0  0  0  0  0  0  0  0  0  0  0
    0.5194    0.9548    0.0000 C   0  0  0  0  0  0  0  0  0  0  0  0
    0.9319    0.2403    0.0000 C   0  0  0  0  0  0  0  0  0  0  0  0
    0.1069    0.2403    0.0000 O   0  0  0  0  0  0  0  0  0  0  0  0
  1  2  1  0
  2  3  1  0
  3  4  1  0
  2  4  1  0
M  END
>  <name>  (97) 
2-methyloxirane

>  <Outcome>  (97) 
1

>  <SMILES>  (97) 
CC1CO1

$$$$

     RDKit          2D

  9  8  0  0  0  0  0  0  0  0999 V2000
    0.0000    0.0000    0.0000 C   0  0  0  0  0  0  0  0  0  0  0  0
    1.2990    0.7500    0.0000 C   0  0  0  0  0  0  0  0  0  0  0  0
    2.5981    1.5000    0.0000 C   0  0  0  0  0  0  0  0  0  0  0  0
    2.0490   -0.5490    0.0000 C   0  0  0  0  0  0  0  0  0  0  0  0
    0.5490    2.0490    0.0000 C   0  0  0  0  0  0  0  0  0  0  0  0
    1.2990    3.3481    0.0000 C   0  0  0  0  0  0  0  0  0  0  0  0
    2.5981    2.5981    0.0000 C   0  0  0  0  0  0  0  0  0  0  0  0
    0.0000    4.0981    0.0000 C   0  0  0  0  0  0  0  0  0  0  0  0
    2.0490    4.6471    0.0000 N   0  0  0  0  0  0  0  0  0  0  0  0
  1  2  1  0
  2  3  1  0
  2  4  1  0
  2  5  1  0
  5  6  1  0
  6  7  1  0
  6  8  1  0
  6  9  1  0
M  END
>  <name>  (98) 
2,4,4-trimethylpentan-2-amine

>  <Outcome>  (98) 
2

>  <SMILES>  (98) 
CC(C)(C)CC(C)(C)N

$$$$

     RDKit          2D

  5  4  0  0  0  0  0  0  0  0999 V2000
    0.8250    1.4289    0.0000 C   0  0  0  0  0  0  0  0  0  0  0  0
    1.2375    0.7145    0.0000 C   0  0  0  0  0  0  0  0  0  0  0  0
    0.8250   -0.0000    0.0000 C   0  0  0  0  0  0  0  0  0  0  0  0
    1.2375   -0.7145    0.0000 O   0  0  0  0  0  0  0  0  0  0  0  0
   -0.0000   -0.0000    0.0000 O   0  0  0  0  0  0  0  0  0  0  0  0
  1  2  2  0
  2  3  1  0
  3  4  2  0
  3  5  1  0
M  END
>  <name>  (99) 
prop-2-enoic acid

>  <Outcome>  (99) 
1

>  <SMILES>  (99) 
C=CC(=O)O

$$$$

     RDKit          2D

  8  7  0  0  0  0  0  0  0  0999 V2000
    2.3660    0.0000    0.0000 C   0  0  0  0  0  0  0  0  0  0  0  0
    0.8660    0.0000    0.0000 C   0  0  0  0  0  0  0  0  0  0  0  0
   -0.4330    0.7500    0.0000 C   0  0  0  0  0  0  0  0  0  0  0  0
   -0.4330   -0.7500    0.0000 O   0  0  0  0  0  0  0  0  0  0  0  0
    0.0000    5.5000    0.0000 C   0  0  0  0  0  0  0  0  0  0  0  0
   -0.0000    4.0000    0.0000 C   0  0  0  0  0  0  0  0  0  0  0  0
   -0.0000    2.5000    0.0000 C   0  0  0  0  0  0  0  0  0  0  0  0
    1.2990    1.7500    0.0000 O   0  0  0  0  0  0  0  0  0  0  0  0
  1  2  1  0
  2  3  1  0
  3  4  1  0
  5  6  3  0
  6  7  1  0
  7  8  1  0
  4  2  1  0
M  END
>  <name>  (100) 
2-methyloxirane;prop-2-yn-1-ol

>  <Outcome>  (100) 
2

>  <SMILES>  (100) 
C#CCO.CC1CO1

$$$$

     RDKit          2D

 13  8  0  0  0  0  0  0  0  0999 V2000
    0.0000    0.0000    0.0000 O   0  0  0  0  0  1  0  0  0  0  0  0
    1.2990    0.7500    0.0000 P   0  0  0  0  0  0  0  0  0  0  0  0
    2.5981    1.5000    0.0000 O   0  0  0  0  0  0  0  0  0  0  0  0
    0.5490    2.0490    0.0000 O   0  0  0  0  0  1  0  0  0  0  0  0
    2.0490   -0.5490    0.0000 O   0  0  0  0  0  1  0  0  0  0  0  0
    3.5981    0.0000    0.0000 O   0  0  0  0  0  1  0  0  0  0  0  0
    4.8971    0.7500    0.0000 P   0  0  0  0  0  0  0  0  0  0  0  0
    6.1962    1.5000    0.0000 O   0  0  0  0  0  0  0  0  0  0  0  0
    4.1471    2.0490    0.0000 O   0  0  0  0  0  1  0  0  0  0  0  0
    5.6471   -0.5490    0.0000 O   0  0  0  0  0  1  0  0  0  0  0  0
    0.0000    3.0490    0.0000 Ni  0  0  0  0  0 15  0  0  0  0  0  0
    0.0000    4.0490    0.0000 Ni  0  0  0  0  0 15  0  0  0  0  0  0
    0.0000    5.0490    0.0000 Ni  0  0  0  0  0 15  0  0  0  0  0  0
  1  2  1  0
  2  3  2  0
  2  4  1  0
  2  5  1  0
  6  7  1  0
  7  8  2  0
  7  9  1  0
  7 10  1  0
M  CHG  8   1  -1   4  -1   5  -1   6  -1   9  -1  10  -1  11   2  12   2
M  CHG  1  13   2
M  END
>  <name>  (101) 
nickel(2+);diphosphate

>  <Outcome>  (101) 
2

>  <SMILES>  (101) 
O=P([O-])([O-])[O-].O=P([O-])([O-])[O-].[Ni+2].[Ni+2].[Ni+2]

$$$$

     RDKit          2D

 19 20  0  0  0  0  0  0  0  0999 V2000
    0.6853    0.3697    0.0000 O   0  0  0  0  0  0  0  0  0  0  0  0
    1.3997   -0.0428    0.0000 C   0  0  0  0  0  0  0  0  0  0  0  0
    2.1142   -0.4553    0.0000 N   0  0  0  0  0  0  0  0  0  0  0  0
    2.1142   -1.2803    0.0000 C   0  0  0  0  0  0  0  0  0  0  0  0
    2.8287   -1.6928    0.0000 C   0  0  0  0  0  0  0  0  0  0  0  0
    2.8287   -2.5178    0.0000 C   0  0  0  0  0  0  0  0  0  0  0  0
    2.1142   -2.9303    0.0000 C   0  0  0  0  0  0  0  0  0  0  0  0
    2.1142   -3.7553    0.0000 C   0  0  0  0  0  0  0  0  0  0  0  0
    1.3997   -4.1678    0.0000 C   0  0  0  0  0  0  0  0  0  0  0  0
    1.3997   -4.9928    0.0000 C   0  0  0  0  0  0  0  0  0  0  0  0
    0.6853   -5.4053    0.0000 C   0  0  0  0  0  0  0  0  0  0  0  0
   -0.0292   -4.9928    0.0000 C   0  0  0  0  0  0  0  0  0  0  0  0
   -0.7437   -5.4053    0.0000 N   0  0  0  0  0  0  0  0  0  0  0  0
   -0.7437   -6.2303    0.0000 C   0  0  0  0  0  0  0  0  0  0  0  0
   -0.7437   -7.0553    0.0000 O   0  0  0  0  0  0  0  0  0  0  0  0
   -0.0292   -4.1678    0.0000 C   0  0  0  0  0  0  0  0  0  0  0  0
    0.6853   -3.7553    0.0000 C   0  0  0  0  0  0  0  0  0  0  0  0
    1.3997   -2.5178    0.0000 C   0  0  0  0  0  0  0  0  0  0  0  0
    1.3997   -1.6928    0.0000 C   0  0  0  0  0  0  0  0  0  0  0  0
  1  2  2  0
  2  3  2  0
  3  4  1  0
  4  5  2  0
  5  6  1  0
  6  7  2  0
  7  8  1  0
  8  9  1  0
  9 10  2  0
 10 11  1  0
 11 12  2  0
 12 13  1  0
 13 14  2  0
 14 15  2  0
 12 16  1  0
 16 17  2  0
  9 17  1  0
  7 18  1  0
 18 19  2  0
  4 19  1  0
M  END
>  <name>  (102) 
1-isocyanato-4-[(4-isocyanatophenyl)methyl]benzene

>  <Outcome>  (102) 
1

>  <SMILES>  (102) 
O=C=Nc1ccc(Cc2ccc(N=C=O)cc2)cc1

$$$$

     RDKit          2D

 10 10  0  0  0  0  0  0  0  0999 V2000
    1.8169    1.7079    0.0000 C   0  0  0  0  0  0  0  0  0  0  0  0
    1.1025    1.2954    0.0000 C   0  0  0  0  0  0  0  0  0  0  0  0
    1.1025    0.4704    0.0000 C   0  0  0  0  0  0  0  0  0  0  0  0
    0.3880    0.0579    0.0000 C   0  0  0  0  0  0  0  0  0  0  0  0
    0.9183   -0.5741    0.0000 C   0  0  0  0  0  0  0  0  0  0  0  0
   -0.1423   -0.5741    0.0000 C   0  0  0  0  0  0  0  0  0  0  0  0
   -0.3265    0.4704    0.0000 C   0  0  0  0  0  0  0  0  0  0  0  0
   -0.3265    1.2954    0.0000 C   0  0  0  0  0  0  0  0  0  0  0  0
   -1.0409    1.7079    0.0000 O   0  0  0  0  0  0  0  0  0  0  0  0
    0.3880    1.7079    0.0000 C   0  0  0  0  0  0  0  0  0  0  0  0
  1  2  1  0
  2  3  2  0
  3  4  1  0
  4  5  1  0
  4  6  1  0
  4  7  1  0
  7  8  1  0
  8  9  2  0
  8 10  1  0
  2 10  1  0
M  END
>  <name>  (103) 
3,5,5-trimethylcyclohex-3-en-1-one

>  <Outcome>  (103) 
1

>  <SMILES>  (103) 
CC1=CC(C)(C)CC(=O)C1

$$$$

     RDKit          2D

  7  6  0  0  0  0  0  0  0  0999 V2000
    0.0000    0.0000    0.0000 C   0  0  0  0  0  0  0  0  0  0  0  0
   -0.0000   -1.5000    0.0000 O   0  0  0  0  0  0  0  0  0  0  0  0
    1.2990    0.7500    0.0000 C   0  0  0  0  0  0  0  0  0  0  0  0
    2.5981    1.5000    0.0000 Cl  0  0  0  0  0  0  0  0  0  0  0  0
    2.0490   -0.5490    0.0000 Cl  0  0  0  0  0  0  0  0  0  0  0  0
    0.5490    2.0490    0.0000 Cl  0  0  0  0  0  0  0  0  0  0  0  0
   -1.2990    0.7500    0.0000 O   0  0  0  0  0  0  0  0  0  0  0  0
  1  2  2  0
  1  3  1  0
  3  4  1  0
  3  5  1  0
  3  6  1  0
  1  7  1  0
M  END
>  <name>  (104) 
2,2,2-trichloroacetic acid

>  <Outcome>  (104) 
2

>  <SMILES>  (104) 
O=C(O)C(Cl)(Cl)Cl

$$$$

     RDKit          2D

  5  4  0  0  0  0  0  0  0  0999 V2000
    0.0000    0.0000    0.0000 C   0  0  0  0  0  0  0  0  0  0  0  0
    1.2990    0.7500    0.0000 C   0  0  0  0  0  0  0  0  0  0  0  0
    2.5981   -0.0000    0.0000 C   0  0  0  0  0  0  0  0  0  0  0  0
    3.8971    0.7500    0.0000 N   0  0  0  0  0  0  0  0  0  0  0  0
    1.2990    2.2500    0.0000 N   0  0  0  0  0  0  0  0  0  0  0  0
  1  2  1  0
  2  3  1  0
  3  4  1  0
  2  5  1  0
M  END
>  <name>  (105) 
propane-1,2-diamine

>  <Outcome>  (105) 
2

>  <SMILES>  (105) 
CC(N)CN

$$$$

     RDKit          2D

  7  7  0  0  0  0  0  0  0  0999 V2000
    0.8559    1.3617    0.0000 C   0  0  0  0  0  0  0  0  0  0  0  0
    1.5992    1.0038    0.0000 C   0  0  0  0  0  0  0  0  0  0  0  0
    1.7827    0.1995    0.0000 C   0  0  0  0  0  0  0  0  0  0  0  0
    1.2684   -0.4456    0.0000 C   0  0  0  0  0  0  0  0  0  0  0  0
    0.4434   -0.4456    0.0000 N   0  0  0  0  0  0  0  0  0  0  0  0
   -0.0710    0.1995    0.0000 C   0  0  0  0  0  0  0  0  0  0  0  0
    0.1126    1.0038    0.0000 C   0  0  0  0  0  0  0  0  0  0  0  0
  1  2  1  0
  2  3  1  0
  3  4  1  0
  4  5  1  0
  5  6  1  0
  6  7  1  0
  1  7  1  0
M  END
>  <name>  (106) 
azepane

>  <Outcome>  (106) 
1

>  <SMILES>  (106) 
C1CCCNCC1

$$$$

     RDKit          2D

 10 11  0  0  0  0  0  0  0  0999 V2000
   -0.1712   -0.6979    0.0000 S   0  0  0  0  0  0  0  0  0  0  0  0
    0.6538   -0.6979    0.0000 C   0  0  0  0  0  0  0  0  0  0  0  0
    1.1387   -0.0305    0.0000 N   0  0  0  0  0  0  0  0  0  0  0  0
    1.9233   -0.2854    0.0000 C   0  0  0  0  0  0  0  0  0  0  0  0
    2.6378    0.1271    0.0000 C   0  0  0  0  0  0  0  0  0  0  0  0
    3.3523   -0.2854    0.0000 C   0  0  0  0  0  0  0  0  0  0  0  0
    3.3523   -1.1104    0.0000 C   0  0  0  0  0  0  0  0  0  0  0  0
    2.6378   -1.5229    0.0000 C   0  0  0  0  0  0  0  0  0  0  0  0
    1.9233   -1.1104    0.0000 C   0  0  0  0  0  0  0  0  0  0  0  0
    1.1387   -1.3653    0.0000 S   0  0  0  0  0  0  0  0  0  0  0  0
  1  2  2  0
  2  3  1  0
  3  4  1  0
  4  5  2  0
  5  6  1  0
  6  7  2  0
  7  8  1  0
  8  9  2  0
  4  9  1  0
  9 10  1  0
  2 10  1  0
M  END
>  <name>  (107) 
1,3-benzothiazole-2-thiol

>  <Outcome>  (107) 
0

>  <SMILES>  (107) 
S=c1[nH]c2ccccc2s1

$$$$

     RDKit          2D

  3  2  0  0  0  0  0  0  0  0999 V2000
    1.7593   -1.4292    0.0000 C   0  0  0  0  0  0  0  0  0  0  0  0
    1.3468   -0.7147    0.0000 C   0  0  0  0  0  0  0  0  0  0  0  0
    0.5218   -0.7147    0.0000 Cl  0  0  0  0  0  0  0  0  0  0  0  0
  1  2  1  0
  2  3  1  0
M  END
>  <name>  (108) 
chloroethane

>  <Outcome>  (108) 
0

>  <SMILES>  (108) 
CCCl

$$$$

     RDKit          2D

  3  2  0  0  0  0  0  0  0  0999 V2000
    1.1822   -0.5082    0.0000 Cl  0  0  0  0  0  0  0  0  0  0  0  0
    0.7697    0.2063    0.0000 C   0  0  0  0  0  0  0  0  0  0  0  0
   -0.0553    0.2063    0.0000 C   0  0  0  0  0  0  0  0  0  0  0  0
  1  2  1  0
  2  3  2  0
M  END
>  <name>  (109) 
Vinyl chloride

>  <Outcome>  (109) 
0

>  <SMILES>  (109) 
C=CCl

$$$$

     RDKit          2D

 10 10  0  0  0  0  0  0  0  0999 V2000
    1.5000    0.0000    0.0000 C   0  0  0  0  0  0  0  0  0  0  0  0
    0.7500   -1.2990    0.0000 C   0  0  0  0  0  0  0  0  0  0  0  0
   -0.7500   -1.2990    0.0000 C   0  0  0  0  0  0  0  0  0  0  0  0
   -1.5000    0.0000    0.0000 C   0  0  0  0  0  0  0  0  0  0  0  0
   -0.7500    1.2990    0.0000 C   0  0  0  0  0  0  0  0  0  0  0  0
    0.7500    1.2990    0.0000 C   0  0  0  0  0  0  0  0  0  0  0  0
    1.5000    2.5981    0.0000 N   0  0  0  0  0  4  0  0  0  0  0  0
    0.7500    3.8971    0.0000 O   0  0  0  0  0  0  0  0  0  0  0  0
    3.0000    2.5981    0.0000 O   0  0  0  0  0  1  0  0  0  0  0  0
   -1.5000   -2.5981    0.0000 O   0  0  0  0  0  0  0  0  0  0  0  0
  1  2  2  0
  2  3  1  0
  3  4  2  0
  4  5  1  0
  5  6  2  0
  6  7  1  0
  7  8  2  0
  7  9  1  0
  3 10  1  0
  6  1  1  0
M  CHG  2   7   1   9  -1
M  END
>  <name>  (110) 
4-nitrophenol

>  <Outcome>  (110) 
2

>  <SMILES>  (110) 
O=[N+]([O-])c1ccc(O)cc1

$$$$

     RDKit          2D

 10 10  0  0  0  0  0  0  0  0999 V2000
   -0.0000    2.4750    0.0000 C   0  0  0  0  0  0  0  0  0  0  0  0
    0.7145    2.0625    0.0000 C   0  0  0  0  0  0  0  0  0  0  0  0
    0.7145    1.2375    0.0000 C   0  0  0  0  0  0  0  0  0  0  0  0
    1.4289    0.8250    0.0000 C   0  0  0  0  0  0  0  0  0  0  0  0
    1.4289   -0.0000    0.0000 C   0  0  0  0  0  0  0  0  0  0  0  0
    0.7145   -0.4125    0.0000 C   0  0  0  0  0  0  0  0  0  0  0  0
    0.7145   -1.2375    0.0000 C   0  0  0  0  0  0  0  0  0  0  0  0
    1.4289   -1.6500    0.0000 C   0  0  0  0  0  0  0  0  0  0  0  0
   -0.0000   -0.0000    0.0000 C   0  0  0  0  0  0  0  0  0  0  0  0
   -0.0000    0.8250    0.0000 C   0  0  0  0  0  0  0  0  0  0  0  0
  1  2  1  0
  2  3  1  0
  3  4  2  0
  4  5  1  0
  5  6  2  0
  6  7  1  0
  7  8  1  0
  6  9  1  0
  9 10  2  0
  3 10  1  0
M  END
>  <name>  (111) 
1,4-diethylbenzene

>  <Outcome>  (111) 
0

>  <SMILES>  (111) 
CCc1ccc(CC)cc1

$$$$

     RDKit          2D

 10  9  0  0  0  0  0  0  0  0999 V2000
   -0.4370    0.7570    0.0000 C   0  0  0  0  0  0  0  0  0  0  0  0
    0.2775    1.1695    0.0000 C   0  0  0  0  0  0  0  0  0  0  0  0
    0.2775    1.9945    0.0000 O   0  0  0  0  0  0  0  0  0  0  0  0
    0.9919    0.7570    0.0000 C   0  0  0  0  0  0  0  0  0  0  0  0
    1.7064    1.1695    0.0000 C   0  0  0  0  0  0  0  0  0  0  0  0
    1.7064    1.9945    0.0000 O   0  0  0  0  0  0  0  0  0  0  0  0
    2.4209    0.7570    0.0000 O   0  0  0  0  0  0  0  0  0  0  0  0
    3.1353    1.1695    0.0000 C   0  0  0  0  0  0  0  0  0  0  0  0
    3.8498    0.7570    0.0000 C   0  0  0  0  0  0  0  0  0  0  0  0
    4.5643    1.1695    0.0000 C   0  0  0  0  0  0  0  0  0  0  0  0
  1  2  1  0
  2  3  2  0
  2  4  1  0
  4  5  1  0
  5  6  2  0
  5  7  1  0
  7  8  1  0
  8  9  1  0
  9 10  2  0
M  END
>  <name>  (112) 
Allyl acetoacetate

>  <Outcome>  (112) 
0

>  <SMILES>  (112) 
C=CCOC(=O)CC(C)=O

$$$$

     RDKit          2D

 10 10  0  0  0  0  0  0  0  0999 V2000
    1.3773    2.2633    0.0000 C   0  0  0  0  0  0  0  0  0  0  0  0
    1.3773    1.4383    0.0000 C   0  0  0  0  0  0  0  0  0  0  0  0
    2.0918    1.0258    0.0000 C   0  0  0  0  0  0  0  0  0  0  0  0
    2.0918    0.2008    0.0000 C   0  0  0  0  0  0  0  0  0  0  0  0
    2.8062   -0.2117    0.0000 O   0  0  0  0  0  0  0  0  0  0  0  0
    1.3773   -0.2117    0.0000 C   0  0  0  0  0  0  0  0  0  0  0  0
    0.6628    0.2008    0.0000 C   0  0  0  0  0  0  0  0  0  0  0  0
    0.3806   -0.5745    0.0000 C   0  0  0  0  0  0  0  0  0  0  0  0
   -0.1497    0.3440    0.0000 C   0  0  0  0  0  0  0  0  0  0  0  0
    0.6628    1.0258    0.0000 C   0  0  0  0  0  0  0  0  0  0  0  0
  1  2  1  0
  2  3  1  0
  3  4  1  0
  4  5  2  0
  4  6  1  0
  6  7  1  0
  7  8  1  0
  7  9  1  0
  7 10  1  0
  2 10  1  0
M  END
>  <name>  (113) 
3,3,5-trimethylcyclohexanone

>  <Outcome>  (113) 
0

>  <SMILES>  (113) 
CC1CC(=O)CC(C)(C)C1

$$$$

     RDKit          2D

  8  8  0  0  0  0  0  0  0  0999 V2000
    1.5000    0.0000    0.0000 C   0  0  0  0  0  0  0  0  0  0  0  0
    0.7500   -1.2990    0.0000 C   0  0  0  0  0  0  0  0  0  0  0  0
   -0.7500   -1.2990    0.0000 C   0  0  0  0  0  0  0  0  0  0  0  0
   -1.5000    0.0000    0.0000 C   0  0  0  0  0  0  0  0  0  0  0  0
   -0.7500    1.2990    0.0000 C   0  0  0  0  0  0  0  0  0  0  0  0
    0.7500    1.2990    0.0000 C   0  0  0  0  0  0  0  0  0  0  0  0
   -3.0000    0.0000    0.0000 Hg  0  0  0  0  0  2  0  0  0  0  0  0
   -4.5000    0.0000    0.0000 Cl  0  0  0  0  0  0  0  0  0  0  0  0
  1  2  2  0
  2  3  1  0
  3  4  2  0
  4  5  1  0
  5  6  2  0
  4  7  1  0
  7  8  1  0
  6  1  1  0
M  END
>  <name>  (114) 
chloro(phenyl)mercury

>  <Outcome>  (114) 
2

>  <SMILES>  (114) 
Cl[Hg]c1ccccc1

$$$$

     RDKit          2D

  5  5  0  0  0  0  0  0  0  0999 V2000
    0.7140    0.1661    0.0000 C   0  0  0  0  0  0  0  0  0  0  0  0
    0.0466    0.6510    0.0000 C   0  0  0  0  0  0  0  0  0  0  0  0
   -0.6208    0.1661    0.0000 C   0  0  0  0  0  0  0  0  0  0  0  0
   -0.3659   -0.6185    0.0000 O   0  0  0  0  0  0  0  0  0  0  0  0
    0.4591   -0.6185    0.0000 C   0  0  0  0  0  0  0  0  0  0  0  0
  2  1  1  0
  3  2  1  0
  4  3  1  0
  5  4  1  0
  1  5  1  0
M  END
>  <name>  (115) 
Tetrahydrofuran

>  <Outcome>  (115) 
0

>  <SMILES>  (115) 
C1CCOC1

$$$$

     RDKit          2D

 16 12  0  0  0  0  0  0  0  0999 V2000
    0.0000    0.0000    0.0000 C   0  0  0  0  0  0  0  0  0  0  0  0
    1.2990    0.7500    0.0000 C   0  0  0  0  0  0  0  0  0  0  0  0
    1.2990    2.2500    0.0000 O   0  0  0  0  0  0  0  0  0  0  0  0
    2.5981   -0.0000    0.0000 O   0  0  0  0  0  1  0  0  0  0  0  0
   -1.2990    0.7500    0.0000 N   0  0  0  0  0  0  0  0  0  0  0  0
   -2.5981    0.0000    0.0000 C   0  0  0  0  0  0  0  0  0  0  0  0
   -2.5981   -1.5000    0.0000 C   0  0  0  0  0  0  0  0  0  0  0  0
   -1.2990   -2.2500    0.0000 O   0  0  0  0  0  0  0  0  0  0  0  0
   -3.8971   -2.2500    0.0000 O   0  0  0  0  0  1  0  0  0  0  0  0
   -1.2990    2.2500    0.0000 C   0  0  0  0  0  0  0  0  0  0  0  0
   -2.5981    3.0000    0.0000 C   0  0  0  0  0  0  0  0  0  0  0  0
   -3.8971    2.2500    0.0000 O   0  0  0  0  0  0  0  0  0  0  0  0
   -2.5981    4.5000    0.0000 O   0  0  0  0  0  1  0  0  0  0  0  0
    3.5981    0.0000    0.0000 Na  0  0  0  0  0 15  0  0  0  0  0  0
    0.0000    5.5000    0.0000 Na  0  0  0  0  0 15  0  0  0  0  0  0
    4.5981    0.0000    0.0000 Na  0  0  0  0  0 15  0  0  0  0  0  0
  1  2  1  0
  2  3  2  0
  2  4  1  0
  1  5  1  0
  5  6  1  0
  6  7  1  0
  7  8  2  0
  7  9  1  0
  5 10  1  0
 10 11  1  0
 11 12  2  0
 11 13  1  0
M  CHG  6   4  -1   9  -1  13  -1  14   1  15   1  16   1
M  END
>  <name>  (116) 
trisodium;2-[bis(carboxylatomethyl)amino]acetate

>  <Outcome>  (116) 
2

>  <SMILES>  (116) 
O=C([O-])CN(CC(=O)[O-])CC(=O)[O-].[Na+].[Na+].[Na+]

$$$$

     RDKit          2D

  8  6  0  0  0  0  0  0  0  0999 V2000
    0.0000    0.0000    0.0000 C   0  0  0  0  0  0  0  0  0  0  0  0
    1.2990    0.7500    0.0000 C   0  0  0  0  0  0  0  0  0  0  0  0
    2.5981   -0.0000    0.0000 C   0  0  0  0  0  0  0  0  0  0  0  0
    3.8971    0.7500    0.0000 C   0  0  0  0  0  0  0  0  0  0  0  0
    0.0000    1.7500    0.0000 C   0  0  0  0  0  0  0  0  0  0  0  0
    1.2990    2.5000    0.0000 C   0  0  0  0  0  0  0  0  0  0  0  0
    2.5981    1.7500    0.0000 C   0  0  0  0  0  0  0  0  0  0  0  0
    3.8971    2.5000    0.0000 C   0  0  0  0  0  0  0  0  0  0  0  0
  1  2  1  0
  2  3  1  0
  3  4  2  0
  5  6  1  0
  6  7  2  3
  7  8  1  0
M  END
>  <name>  (117) 
but-1-ene;(E)-but-2-ene

>  <Outcome>  (117) 
2

>  <SMILES>  (117) 
C=CCC.CC=CC

$$$$

     RDKit          2D

  9  6  0  0  0  0  0  0  0  0999 V2000
    0.0000    0.0000    0.0000 N   0  0  0  0  0  4  0  0  0  0  0  0
   -0.0000   -1.5000    0.0000 O   0  0  0  0  0  0  0  0  0  0  0  0
    1.2990    0.7500    0.0000 O   0  0  0  0  0  1  0  0  0  0  0  0
   -1.2990    0.7500    0.0000 O   0  0  0  0  0  1  0  0  0  0  0  0
    0.0000    3.2500    0.0000 N   0  0  0  0  0  4  0  0  0  0  0  0
   -0.0000    1.7500    0.0000 O   0  0  0  0  0  0  0  0  0  0  0  0
    1.2990    4.0000    0.0000 O   0  0  0  0  0  1  0  0  0  0  0  0
   -1.2990    4.0000    0.0000 O   0  0  0  0  0  1  0  0  0  0  0  0
    2.2990    0.0000    0.0000 Cu  0  0  0  0  0 15  0  0  0  0  0  0
  1  2  2  0
  1  3  1  0
  1  4  1  0
  5  6  2  0
  5  7  1  0
  5  8  1  0
M  CHG  7   1   1   3  -1   4  -1   5   1   7  -1   8  -1   9   2
M  END
>  <name>  (118) 
copper;dinitrate

>  <Outcome>  (118) 
2

>  <SMILES>  (118) 
O=[N+]([O-])[O-].O=[N+]([O-])[O-].[Cu+2]

$$$$

     RDKit          2D

 20 21  0  0  0  0  0  0  0  0999 V2000
    1.5000   -0.0000    0.0000 C   0  0  0  0  0  0  0  0  0  0  0  0
    0.7500   -1.2990    0.0000 C   0  0  0  0  0  0  0  0  0  0  0  0
   -0.7500   -1.2990    0.0000 C   0  0  0  0  0  0  0  0  0  0  0  0
   -1.5000    0.0000    0.0000 C   0  0  0  0  0  0  0  0  0  0  0  0
   -0.7500    1.2990    0.0000 C   0  0  0  0  0  0  0  0  0  0  0  0
    0.7500    1.2990    0.0000 C   0  0  0  0  0  0  0  0  0  0  0  0
    1.5000    2.5981    0.0000 C   0  0  0  0  0  0  0  0  0  0  0  0
    2.2500    3.8971    0.0000 C   0  0  0  0  0  0  0  0  0  0  0  0
    3.7500    3.8971    0.0000 C   0  0  0  0  0  0  0  0  0  0  0  0
    4.5000    5.1962    0.0000 C   0  0  0  0  0  0  0  0  0  0  0  0
    3.7500    6.4952    0.0000 C   0  0  0  0  0  0  0  0  0  0  0  0
    2.2500    6.4952    0.0000 C   0  0  0  0  0  0  0  0  0  0  0  0
    1.5000    5.1962    0.0000 C   0  0  0  0  0  0  0  0  0  0  0  0
    4.5000    7.7942    0.0000 Cl  0  0  0  0  0  0  0  0  0  0  0  0
    2.7990    1.8481    0.0000 C   0  0  0  0  0  0  0  0  0  0  0  0
    4.0981    1.0981    0.0000 Cl  0  0  0  0  0  0  0  0  0  0  0  0
    2.3857    0.4062    0.0000 Cl  0  0  0  0  0  0  0  0  0  0  0  0
    3.8411    2.9270    0.0000 Cl  0  0  0  0  0  0  0  0  0  0  0  0
    0.2010    3.3481    0.0000 O   0  0  0  0  0  0  0  0  0  0  0  0
   -1.5000   -2.5981    0.0000 Cl  0  0  0  0  0  0  0  0  0  0  0  0
  1  2  2  0
  2  3  1  0
  3  4  2  0
  4  5  1  0
  5  6  2  0
  6  7  1  0
  7  8  1  0
  8  9  2  0
  9 10  1  0
 10 11  2  0
 11 12  1  0
 12 13  2  0
 11 14  1  0
  7 15  1  0
 15 16  1  0
 15 17  1  0
 15 18  1  0
  7 19  1  0
  3 20  1  0
  6  1  1  0
 13  8  1  0
M  END
>  <name>  (119) 
2,2,2-trichloro-1,1-bis(4-chlorophenyl)ethanol

>  <Outcome>  (119) 
2

>  <SMILES>  (119) 
OC(c1ccc(Cl)cc1)(c1ccc(Cl)cc1)C(Cl)(Cl)Cl

$$$$

     RDKit          2D

  1  0  0  0  0  0  0  0  0  0999 V2000
    0.0000    0.0000    0.0000 Sb  0  0  0  0  0  3  0  0  0  0  0  0
M  END
>  <name>  (120) 
stibane

>  <Outcome>  (120) 
2

>  <SMILES>  (120) 
[SbH3]

$$$$

     RDKit          2D

 11 11  0  0  0  0  0  0  0  0999 V2000
    3.3002   -0.3536    0.0000 C   0  0  0  0  0  0  0  0  0  0  0  0
    2.5858    0.0589    0.0000 O   0  0  0  0  0  0  0  0  0  0  0  0
    1.8713   -0.3536    0.0000 C   0  0  0  0  0  0  0  0  0  0  0  0
    1.8713   -1.1786    0.0000 O   0  0  0  0  0  0  0  0  0  0  0  0
    1.1568    0.0589    0.0000 C   0  0  0  0  0  0  0  0  0  0  0  0
    0.4423   -0.3536    0.0000 C   0  0  0  0  0  0  0  0  0  0  0  0
   -0.2721    0.0589    0.0000 C   0  0  0  0  0  0  0  0  0  0  0  0
   -0.9866   -0.3536    0.0000 C   0  0  0  0  0  0  0  0  0  0  0  0
   -0.9866   -1.1786    0.0000 C   0  0  0  0  0  0  0  0  0  0  0  0
   -0.2721   -1.5911    0.0000 C   0  0  0  0  0  0  0  0  0  0  0  0
    0.4423   -1.1786    0.0000 C   0  0  0  0  0  0  0  0  0  0  0  0
  1  2  1  0
  2  3  1  0
  3  4  2  0
  3  5  1  0
  5  6  1  0
  7  6  2  0
  8  7  1  0
  9  8  2  0
 10  9  1  0
 11 10  2  0
  6 11  1  0
M  END
>  <name>  (121) 
Methyl phenylacetate

>  <Outcome>  (121) 
0

>  <SMILES>  (121) 
COC(=O)Cc1ccccc1

$$$$

     RDKit          2D

  7  6  0  0  0  0  0  0  0  0999 V2000
    0.0000    0.0000    0.0000 C   0  0  0  0  0  0  0  0  0  0  0  0
    1.2990    0.7500    0.0000 C   0  0  0  0  0  0  0  0  0  0  0  0
    2.5981   -0.0000    0.0000 O   0  0  0  0  0  0  0  0  0  0  0  0
    3.8971    0.7500    0.0000 C   0  0  0  0  0  0  0  0  0  0  0  0
    3.8971    2.2500    0.0000 O   0  0  0  0  0  0  0  0  0  0  0  0
    5.1962   -0.0000    0.0000 C   0  0  0  0  0  0  0  0  0  0  0  0
    6.4952    0.7500    0.0000 Cl  0  0  0  0  0  0  0  0  0  0  0  0
  1  2  1  0
  2  3  1  0
  3  4  1  0
  4  5  2  0
  4  6  1  0
  6  7  1  0
M  END
>  <name>  (122) 
ethyl 2-chloroacetate

>  <Outcome>  (122) 
2

>  <SMILES>  (122) 
CCOC(=O)CCl

$$$$

     RDKit          2D

 11 10  0  0  0  0  0  0  0  0999 V2000
    0.0000    0.0000    0.0000 C   0  0  0  0  0  0  0  0  0  0  0  0
    1.2990    0.7500    0.0000 C   0  0  0  0  0  0  0  0  0  0  0  0
    2.5981   -0.0000    0.0000 C   0  0  0  0  0  0  0  0  0  0  0  0
    3.8971    0.7500    0.0000 C   0  0  0  0  0  0  0  0  0  0  0  0
    5.1962   -0.0000    0.0000 C   0  0  0  0  0  0  0  0  0  0  0  0
    6.4952    0.7500    0.0000 C   0  0  0  0  0  0  0  0  0  0  0  0
    7.7942   -0.0000    0.0000 C   0  0  0  0  0  0  0  0  0  0  0  0
    6.4952    2.2500    0.0000 C   0  0  0  0  0  0  0  0  0  0  0  0
    1.2990    2.2500    0.0000 C   0  0  0  0  0  0  0  0  0  0  0  0
    2.5981    3.0000    0.0000 C   0  0  0  0  0  0  0  0  0  0  0  0
    2.5981    4.5000    0.0000 O   0  0  0  0  0  0  0  0  0  0  0  0
  1  2  1  0
  2  3  1  0
  3  4  1  0
  4  5  1  0
  5  6  2  0
  6  7  1  0
  6  8  1  0
  2  9  1  0
  9 10  1  0
 10 11  2  0
M  END
>  <name>  (123) 
3,7-dimethyloct-6-enal

>  <Outcome>  (123) 
2

>  <SMILES>  (123) 
CC(C)=CCCC(C)CC=O

$$$$

     RDKit          2D

  6  5  0  0  0  0  0  0  0  0999 V2000
    0.5006    1.9091    0.0000 C   0  0  0  0  0  0  0  0  0  0  0  0
    0.9131    1.1946    0.0000 C   0  0  0  0  0  0  0  0  0  0  0  0
    1.7381    1.1946    0.0000 C   0  0  0  0  0  0  0  0  0  0  0  0
    0.5006    0.4801    0.0000 N   0  0  0  0  0  0  0  0  0  0  0  0
    0.9131   -0.2343    0.0000 C   0  0  0  0  0  0  0  0  0  0  0  0
   -0.3244    0.4801    0.0000 C   0  0  0  0  0  0  0  0  0  0  0  0
  1  2  1  0
  2  3  1  0
  2  4  1  0
  4  5  1  0
  4  6  1  0
M  END
>  <name>  (124) 
Dimethylisopropylamine

>  <Outcome>  (124) 
1

>  <SMILES>  (124) 
CC(C)N(C)C

$$$$

     RDKit          2D

  5  4  0  0  0  0  0  0  0  0999 V2000
    0.0000    0.0000    0.0000 C   0  0  0  0  0  0  0  0  0  0  0  0
    1.2990    0.7500    0.0000 C   0  0  0  0  0  0  0  0  0  0  0  0
    1.2990    2.2500    0.0000 O   0  0  0  0  0  0  0  0  0  0  0  0
    2.5981   -0.0000    0.0000 C   0  0  0  0  0  0  0  0  0  0  0  0
    3.8971    0.7500    0.0000 Br  0  0  0  0  0  0  0  0  0  0  0  0
  1  2  1  0
  2  3  2  0
  2  4  1  0
  4  5  1  0
M  END
>  <name>  (125) 
1-bromopropan-2-one

>  <Outcome>  (125) 
2

>  <SMILES>  (125) 
CC(=O)CBr

$$$$

     RDKit          2D

 10 10  0  0  0  0  0  0  0  0999 V2000
    2.0059    0.9193    0.0000 C   0  0  0  0  0  0  0  0  0  0  0  0
    1.2914    1.3318    0.0000 C   0  0  0  0  0  0  0  0  0  0  0  0
    0.5769    0.9193    0.0000 C   0  0  0  0  0  0  0  0  0  0  0  0
   -0.1375    1.3318    0.0000 C   0  0  0  0  0  0  0  0  0  0  0  0
   -0.8520    0.9193    0.0000 C   0  0  0  0  0  0  0  0  0  0  0  0
   -0.8520    0.0943    0.0000 C   0  0  0  0  0  0  0  0  0  0  0  0
   -0.1375   -0.3182    0.0000 C   0  0  0  0  0  0  0  0  0  0  0  0
   -0.1375   -1.1432    0.0000 C   0  0  0  0  0  0  0  0  0  0  0  0
    0.5769    0.0943    0.0000 C   0  0  0  0  0  0  0  0  0  0  0  0
    1.2914   -0.3182    0.0000 N   0  0  0  0  0  0  0  0  0  0  0  0
  1  2  1  0
  2  3  1  0
  4  3  2  0
  5  4  1  0
  6  5  2  0
  7  6  1  0
  7  8  1  0
  9  7  2  0
  9 10  1  0
  3  9  1  0
M  END
>  <name>  (126) 
2-Ethyl-6-methylaniline

>  <Outcome>  (126) 
1

>  <SMILES>  (126) 
CCc1cccc(C)c1N

$$$$

     RDKit          2D

  8  7  0  0  0  0  0  0  0  0999 V2000
    0.0000   -0.0020    0.0000 C   0  0  0  0  0  0  0  0  0  0  0  0
    0.7145    0.4105    0.0000 C   0  0  0  0  0  0  0  0  0  0  0  0
    1.4290   -0.0020    0.0000 O   0  0  0  0  0  0  0  0  0  0  0  0
    2.1434    0.4105    0.0000 C   0  0  0  0  0  0  0  0  0  0  0  0
    2.1434    1.2355    0.0000 O   0  0  0  0  0  0  0  0  0  0  0  0
    2.8579   -0.0020    0.0000 C   0  0  0  0  0  0  0  0  0  0  0  0
    3.5724    0.4105    0.0000 C   0  0  0  0  0  0  0  0  0  0  0  0
    2.8579   -0.8270    0.0000 C   0  0  0  0  0  0  0  0  0  0  0  0
  1  2  1  0
  2  3  1  0
  3  4  1  0
  4  5  2  0
  4  6  1  0
  6  7  1  0
  6  8  2  0
M  END
>  <name>  (127) 
Ethyl methacrylate

>  <Outcome>  (127) 
0

>  <SMILES>  (127) 
C=C(C)C(=O)OCC

$$$$

     RDKit          2D

  6  5  0  0  0  0  0  0  0  0999 V2000
    1.2700    1.2668    0.0000 C   0  0  0  0  0  0  0  0  0  0  0  0
    0.8575    0.5523    0.0000 C   0  0  0  0  0  0  0  0  0  0  0  0
    1.2700   -0.1622    0.0000 O   0  0  0  0  0  0  0  0  0  0  0  0
    0.8575   -0.8766    0.0000 C   0  0  0  0  0  0  0  0  0  0  0  0
    1.2700   -1.5911    0.0000 Cl  0  0  0  0  0  0  0  0  0  0  0  0
    0.0325   -0.8766    0.0000 O   0  0  0  0  0  0  0  0  0  0  0  0
  1  2  1  0
  2  3  1  0
  3  4  1  0
  4  5  1  0
  4  6  2  0
M  END
>  <name>  (128) 
Ethyl chloroformate

>  <Outcome>  (128) 
1

>  <SMILES>  (128) 
CCOC(=O)Cl

$$$$

     RDKit          2D

 10  9  0  0  0  0  0  0  0  0999 V2000
    0.0000    0.0000    0.0000 C   0  0  0  0  0  0  0  0  0  0  0  0
    1.2990    0.7500    0.0000 C   0  0  0  0  0  0  0  0  0  0  0  0
    2.5981   -0.0000    0.0000 O   0  0  0  0  0  0  0  0  0  0  0  0
    3.8971    0.7500    0.0000 C   0  0  0  0  0  0  0  0  0  0  0  0
    5.1962   -0.0000    0.0000 C   0  0  0  0  0  0  0  0  0  0  0  0
    6.4952    0.7500    0.0000 C   0  0  0  0  0  0  0  0  0  0  0  0
    5.1962   -1.5000    0.0000 O   0  0  0  0  0  0  0  0  0  0  0  0
    6.4952   -2.2500    0.0000 C   0  0  0  0  0  0  0  0  0  0  0  0
    7.7942   -1.5000    0.0000 O   0  0  0  0  0  0  0  0  0  0  0  0
    6.4952   -3.7500    0.0000 C   0  0  0  0  0  0  0  0  0  0  0  0
  1  2  1  0
  2  3  1  0
  3  4  1  0
  4  5  1  0
  5  6  1  0
  5  7  1  0
  7  8  1  0
  8  9  2  0
  8 10  1  0
M  END
>  <name>  (129) 
1-ethoxypropan-2-yl acetate

>  <Outcome>  (129) 
2

>  <SMILES>  (129) 
CCOCC(C)OC(C)=O

$$$$

     RDKit          2D

 26 25  0  0  0  0  0  0  0  0999 V2000
    2.4434   -8.8100    0.0000 C   0  0  0  0  0  0  0  0  0  0  0  0
    2.0309   -8.0955    0.0000 C   0  0  0  0  0  0  0  0  0  0  0  0
    2.4434   -7.3810    0.0000 C   0  0  0  0  0  0  0  0  0  0  0  0
    2.0309   -6.6666    0.0000 C   0  0  0  0  0  0  0  0  0  0  0  0
    2.4434   -5.9521    0.0000 O   0  0  0  0  0  0  0  0  0  0  0  0
    2.0309   -5.2376    0.0000 C   0  0  0  0  0  0  0  0  0  0  0  0
    2.4434   -4.5232    0.0000 C   0  0  0  0  0  0  0  0  0  0  0  0
    2.0309   -3.8087    0.0000 O   0  0  0  0  0  0  0  0  0  0  0  0
    2.4434   -3.0942    0.0000 P   0  0  0  0  0  0  0  0  0  0  0  0
    3.1578   -3.5067    0.0000 O   0  0  0  0  0  0  0  0  0  0  0  0
    2.8559   -2.3797    0.0000 O   0  0  0  0  0  0  0  0  0  0  0  0
    3.6809   -2.3797    0.0000 C   0  0  0  0  0  0  0  0  0  0  0  0
    4.0934   -3.0942    0.0000 C   0  0  0  0  0  0  0  0  0  0  0  0
    4.9184   -3.0942    0.0000 O   0  0  0  0  0  0  0  0  0  0  0  0
    5.3309   -3.8087    0.0000 C   0  0  0  0  0  0  0  0  0  0  0  0
    6.1559   -3.8087    0.0000 C   0  0  0  0  0  0  0  0  0  0  0  0
    6.5684   -4.5232    0.0000 C   0  0  0  0  0  0  0  0  0  0  0  0
    7.3934   -4.5232    0.0000 C   0  0  0  0  0  0  0  0  0  0  0  0
    1.7289   -2.6817    0.0000 O   0  0  0  0  0  0  0  0  0  0  0  0
    1.7289   -1.8567    0.0000 C   0  0  0  0  0  0  0  0  0  0  0  0
    2.4434   -1.4442    0.0000 C   0  0  0  0  0  0  0  0  0  0  0  0
    3.1578   -1.8567    0.0000 O   0  0  0  0  0  0  0  0  0  0  0  0
    3.8723   -1.4442    0.0000 C   0  0  0  0  0  0  0  0  0  0  0  0
    4.5868   -1.8567    0.0000 C   0  0  0  0  0  0  0  0  0  0  0  0
    5.3013   -1.4442    0.0000 C   0  0  0  0  0  0  0  0  0  0  0  0
    6.0157   -1.8567    0.0000 C   0  0  0  0  0  0  0  0  0  0  0  0
  1  2  1  0
  2  3  1  0
  3  4  1  0
  4  5  1  0
  5  6  1  0
  6  7  1  0
  7  8  1  0
  8  9  1  0
  9 10  2  0
  9 11  1  0
 11 12  1  0
 12 13  1  0
 13 14  1  0
 14 15  1  0
 15 16  1  0
 16 17  1  0
 17 18  1  0
  9 19  1  0
 19 20  1  0
 20 21  1  0
 21 22  1  0
 22 23  1  0
 23 24  1  0
 24 25  1  0
 25 26  1  0
M  END
>  <name>  (130) 
tris(2-butoxyethyl) phosphate

>  <Outcome>  (130) 
0

>  <SMILES>  (130) 
CCCCOCCOP(=O)(OCCOCCCC)OCCOCCCC

$$$$

     RDKit          2D

 11 11  0  0  0  0  0  0  0  0999 V2000
    6.0000   -2.5981    0.0000 C   0  0  0  0  0  0  0  0  0  0  0  0
    5.2500   -1.2990    0.0000 C   0  0  0  0  0  0  0  0  0  0  0  0
    6.0000    0.0000    0.0000 O   0  0  0  0  0  0  0  0  0  0  0  0
    3.7500   -1.2990    0.0000 O   0  0  0  0  0  0  0  0  0  0  0  0
    3.0000    0.0000    0.0000 C   0  0  0  0  0  0  0  0  0  0  0  0
    1.5000    0.0000    0.0000 C   0  0  0  0  0  0  0  0  0  0  0  0
    0.7500   -1.2990    0.0000 C   0  0  0  0  0  0  0  0  0  0  0  0
   -0.7500   -1.2990    0.0000 C   0  0  0  0  0  0  0  0  0  0  0  0
   -1.5000    0.0000    0.0000 C   0  0  0  0  0  0  0  0  0  0  0  0
   -0.7500    1.2990    0.0000 C   0  0  0  0  0  0  0  0  0  0  0  0
    0.7500    1.2990    0.0000 C   0  0  0  0  0  0  0  0  0  0  0  0
  1  2  1  0
  2  3  2  0
  2  4  1  0
  4  5  1  0
  5  6  1  0
  6  7  2  0
  7  8  1  0
  8  9  2  0
  9 10  1  0
 10 11  2  0
 11  6  1  0
M  END
>  <name>  (131) 
benzyl acetate

>  <Outcome>  (131) 
2

>  <SMILES>  (131) 
CC(=O)OCc1ccccc1

$$$$

     RDKit          2D

  8  7  0  0  0  0  0  0  0  0999 V2000
    0.6679    1.9882    0.0000 C   0  0  0  0  0  0  0  0  0  0  0  0
    0.6679    1.1632    0.0000 C   0  0  0  0  0  0  0  0  0  0  0  0
   -0.0466    0.7507    0.0000 C   0  0  0  0  0  0  0  0  0  0  0  0
   -0.7611    1.1632    0.0000 N   0  0  0  0  0  0  0  0  0  0  0  0
    1.3823    0.7507    0.0000 C   0  0  0  0  0  0  0  0  0  0  0  0
    2.0968    1.1632    0.0000 C   0  0  0  0  0  0  0  0  0  0  0  0
    2.8113    0.7507    0.0000 C   0  0  0  0  0  0  0  0  0  0  0  0
    3.5257    1.1632    0.0000 N   0  0  0  0  0  0  0  0  0  0  0  0
  1  2  1  0
  2  3  1  0
  3  4  1  0
  2  5  1  0
  5  6  1  0
  6  7  1  0
  7  8  1  0
M  END
>  <name>  (132) 
2-Methylpentanediamine

>  <Outcome>  (132) 
1

>  <SMILES>  (132) 
CC(CN)CCCN

$$$$

     RDKit          2D

  5  4  0  0  0  0  0  0  0  0999 V2000
    1.1071    1.2421    0.0000 C   0  0  0  0  0  0  0  0  0  0  0  0
    1.5196    0.5276    0.0000 C   0  0  0  0  0  0  0  0  0  0  0  0
    1.1071   -0.1869    0.0000 C   0  0  0  0  0  0  0  0  0  0  0  0
    1.5196   -0.9014    0.0000 C   0  0  0  0  0  0  0  0  0  0  0  0
    0.2821   -0.1869    0.0000 C   0  0  0  0  0  0  0  0  0  0  0  0
  1  2  1  0
  2  3  1  0
  3  4  1  0
  3  5  1  0
M  END
>  <name>  (133) 
2-Methylbutane

>  <Outcome>  (133) 
0

>  <SMILES>  (133) 
CCC(C)C

$$$$

     RDKit          2D

 19 19  0  0  0  0  0  0  0  0999 V2000
    4.6845   -4.9825    0.0000 C   0  0  0  0  0  0  0  0  0  0  0  0
    5.3989   -4.5700    0.0000 C   0  0  0  0  0  0  0  0  0  0  0  0
    6.1134   -4.9825    0.0000 C   0  0  0  0  0  0  0  0  0  0  0  0
    6.8279   -4.5700    0.0000 C   0  0  0  0  0  0  0  0  0  0  0  0
    7.5424   -4.9825    0.0000 C   0  0  0  0  0  0  0  0  0  0  0  0
    8.2568   -4.5700    0.0000 C   0  0  0  0  0  0  0  0  0  0  0  0
    8.9713   -4.9825    0.0000 C   0  0  0  0  0  0  0  0  0  0  0  0
    9.6858   -4.5700    0.0000 C   0  0  0  0  0  0  0  0  0  0  0  0
   10.4002   -4.9825    0.0000 C   0  0  0  0  0  0  0  0  0  0  0  0
   11.1147   -4.5700    0.0000 C   0  0  0  0  0  0  0  0  0  0  0  0
   11.8292   -4.9825    0.0000 C   0  0  0  0  0  0  0  0  0  0  0  0
   12.5437   -4.5700    0.0000 C   0  0  0  0  0  0  0  0  0  0  0  0
   13.2581   -4.9825    0.0000 C   0  0  0  0  0  0  0  0  0  0  0  0
   14.0118   -4.6469    0.0000 C   0  0  0  0  0  0  0  0  0  0  0  0
   14.5638   -5.2600    0.0000 C   0  0  0  0  0  0  0  0  0  0  0  0
   15.3843   -5.1738    0.0000 O   0  0  0  0  0  0  0  0  0  0  0  0
   14.1513   -5.9745    0.0000 O   0  0  0  0  0  0  0  0  0  0  0  0
   13.3444   -5.8030    0.0000 C   0  0  0  0  0  0  0  0  0  0  0  0
   12.7313   -6.3550    0.0000 O   0  0  0  0  0  0  0  0  0  0  0  0
  1  2  1  0
  2  3  1  0
  3  4  1  0
  4  5  1  0
  5  6  1  0
  6  7  1  0
  7  8  1  0
  8  9  1  0
 10  9  1  0
 10 11  2  3
 11 12  1  0
 12 13  1  0
 13 14  1  0
 14 15  1  0
 15 16  2  0
 15 17  1  0
 17 18  1  0
 13 18  1  0
 18 19  2  0
M  END
>  <name>  (134) 
3-[(2E)-dodec-2-en-1-yl]oxolane-2,5-dione; 3-[(2Z)-dodec-2-en-1-yl]oxolane-2,5-dione

>  <Outcome>  (134) 
0

>  <SMILES>  (134) 
CCCCCCCCCC=CCC1CC(=O)OC1=O

$$$$

     RDKit          2D

  4  3  0  0  0  0  0  0  0  0999 V2000
    2.0625   -0.7145    0.0000 C   0  0  0  0  0  0  0  0  0  0  0  0
    1.6500   -0.0000    0.0000 C   0  0  0  0  0  0  0  0  0  0  0  0
    0.8250   -0.0000    0.0000 C   0  0  0  0  0  0  0  0  0  0  0  0
   -0.0000   -0.0000    0.0000 N   0  0  0  0  0  0  0  0  0  0  0  0
  1  2  2  0
  2  3  1  0
  3  4  3  0
M  END
>  <name>  (135) 
prop-2-enenitrile

>  <Outcome>  (135) 
1

>  <SMILES>  (135) 
C=CC#N

$$$$

     RDKit          2D

 32 35  0  0  0  0  0  0  0  0999 V2000
    0.0438   -0.0099    0.0000 C   0  0  0  0  0  0  0  0  0  0  0  0
    0.7582   -0.4224    0.0000 C   0  0  0  0  0  0  0  0  0  0  0  0
    0.7582   -1.2474    0.0000 N   0  0  0  0  0  0  0  0  0  0  0  0
    1.4727   -1.6599    0.0000 C   0  0  0  0  0  0  0  0  0  0  0  0
    2.1872   -1.2474    0.0000 C   0  0  0  0  0  0  0  0  0  0  0  0
    2.9017   -1.6599    0.0000 C   0  0  0  0  0  0  0  0  0  0  0  0
    3.6161   -1.2474    0.0000 O   0  0  0  0  0  0  0  0  0  0  0  0
    4.3306   -1.6599    0.0000 C   0  0  0  0  0  0  0  0  0  0  0  0
    5.0451   -1.2474    0.0000 C   0  0  0  0  0  0  0  0  0  0  0  0
    5.7595   -1.6599    0.0000 C   0  0  0  0  0  0  0  0  0  0  0  0
    6.4740   -1.2474    0.0000 N   0  0  0  0  0  0  0  0  0  0  0  0
    6.4740   -0.4224    0.0000 C   0  0  0  0  0  0  0  0  0  0  0  0
    7.1885   -0.0099    0.0000 C   0  0  0  0  0  0  0  0  0  0  0  0
    5.7595   -2.4849    0.0000 C   0  0  0  0  0  0  0  0  0  0  0  0
    6.4740   -2.8974    0.0000 C   0  0  0  0  0  0  0  0  0  0  0  0
    5.0451   -2.8974    0.0000 C   0  0  0  0  0  0  0  0  0  0  0  0
    4.3306   -2.4849    0.0000 C   0  0  0  0  0  0  0  0  0  0  0  0
    3.6161   -2.8974    0.0000 C   0  0  0  0  0  0  0  0  0  0  0  0
    3.6161   -3.7224    0.0000 C   0  0  0  0  0  0  0  0  0  0  0  0
    4.3306   -4.1349    0.0000 C   0  0  0  0  0  0  0  0  0  0  0  0
    4.3306   -4.9599    0.0000 C   0  0  0  0  0  0  0  0  0  0  0  0
    3.6161   -5.3724    0.0000 C   0  0  0  0  0  0  0  0  0  0  0  0
    2.9017   -4.9599    0.0000 C   0  0  0  0  0  0  0  0  0  0  0  0
    2.9017   -4.1349    0.0000 C   0  0  0  0  0  0  0  0  0  0  0  0
    2.1872   -3.7224    0.0000 C   0  0  0  0  0  0  0  0  0  0  0  0
    1.7023   -3.0550    0.0000 O   0  0  0  0  0  0  0  0  0  0  0  0
    1.4727   -4.1349    0.0000 O   0  0  0  0  0  0  0  0  0  0  0  0
    0.7582   -3.7224    0.0000 C   0  0  0  0  0  0  0  0  0  0  0  0
    2.9017   -2.4849    0.0000 C   0  0  0  0  0  0  0  0  0  0  0  0
    2.1872   -2.8974    0.0000 C   0  0  0  0  0  0  0  0  0  0  0  0
    1.4727   -2.4849    0.0000 C   0  0  0  0  0  0  0  0  0  0  0  0
    0.7582   -2.8974    0.0000 C   0  0  0  0  0  0  0  0  0  0  0  0
  1  2  1  0
  2  3  1  0
  3  4  1  0
  4  5  2  0
  5  6  1  0
  6  7  2  0
  7  8  1  0
  8  9  2  0
  9 10  1  0
 10 11  1  0
 11 12  1  0
 12 13  1  0
 10 14  2  0
 14 15  1  0
 14 16  1  0
 16 17  2  0
  8 17  1  0
 17 18  1  0
 18 19  1  0
 19 20  2  0
 20 21  1  0
 21 22  2  0
 22 23  1  0
 23 24  2  0
 19 24  1  0
 24 25  1  0
 25 26  2  0
 25 27  1  0
 27 28  1  0
 18 29  2  0
  6 29  1  0
 29 30  1  0
 30 31  2  0
  4 31  1  0
 31 32  1  0
M  CHG  1   7   1
M  END
>  <name>  (136) 
3,6-bis(ethylamino)-9-[2-(methoxycarbonyl)phenyl]-2,7-dimethyl-10??????-xanthen-10-ylium chloride

>  <Outcome>  (136) 
1

>  <SMILES>  (136) 
CCNc1cc2[o+]c3cc(NCC)c(C)cc3c(-c3ccccc3C(=O)OC)c2cc1C

$$$$

     RDKit          2D

  8  6  0  0  0  0  0  0  0  0999 V2000
    0.0000    0.0000    0.0000 C   0  0  0  0  0  0  0  0  0  0  0  0
   -0.0000   -1.5000    0.0000 N   0  0  0  0  0  0  0  0  0  0  0  0
    1.2990    0.7500    0.0000 N   0  0  0  0  0  0  0  0  0  0  0  0
   -1.2990    0.7500    0.0000 N   0  0  0  0  0  0  0  0  0  0  0  0
    0.0000    3.2500    0.0000 N   0  0  0  0  0  4  0  0  0  0  0  0
   -0.0000    1.7500    0.0000 O   0  0  0  0  0  0  0  0  0  0  0  0
   -1.2990    4.0000    0.0000 O   0  0  0  0  0  0  0  0  0  0  0  0
    1.2990    4.0000    0.0000 O   0  0  0  0  0  1  0  0  0  0  0  0
  1  2  2  0
  1  3  1  0
  1  4  1  0
  5  6  2  0
  5  7  1  0
  5  8  1  0
M  CHG  2   5   1   8  -1
M  END
>  <name>  (137) 
guanidine;nitric acid

>  <Outcome>  (137) 
2

>  <SMILES>  (137) 
N=C(N)N.O=[N+]([O-])O

$$$$

     RDKit          2D

 10 10  0  0  0  0  0  0  0  0999 V2000
    0.8037    2.0913    0.0000 C   0  0  0  0  0  0  0  0  0  0  0  0
    0.8037    1.2663    0.0000 C   0  0  0  0  0  0  0  0  0  0  0  0
    1.5182    0.8538    0.0000 O   0  0  0  0  0  0  0  0  0  0  0  0
    1.5182    0.0288    0.0000 C   0  0  0  0  0  0  0  0  0  0  0  0
    2.2326   -0.3837    0.0000 O   0  0  0  0  0  0  0  0  0  0  0  0
    0.8037   -0.3837    0.0000 C   0  0  0  0  0  0  0  0  0  0  0  0
    0.8037   -1.2087    0.0000 C   0  0  0  0  0  0  0  0  0  0  0  0
    0.0892    0.0288    0.0000 O   0  0  0  0  0  0  0  0  0  0  0  0
    0.0892    0.8538    0.0000 C   0  0  0  0  0  0  0  0  0  0  0  0
   -0.6252    1.2663    0.0000 O   0  0  0  0  0  0  0  0  0  0  0  0
  1  2  1  0
  2  3  1  0
  3  4  1  0
  4  5  2  0
  4  6  1  0
  6  7  1  0
  6  8  1  0
  8  9  1  0
  2  9  1  0
  9 10  2  0
M  END
>  <name>  (138) 
3,6-dimethyl-1,4-dioxane-2,5-dione

>  <Outcome>  (138) 
0

>  <SMILES>  (138) 
CC1OC(=O)C(C)OC1=O

$$$$

     RDKit          2D

  8  8  0  0  0  0  0  0  0  0999 V2000
    1.7200   -1.9885    0.0000 C   0  0  0  0  0  0  0  0  0  0  0  0
    1.7200   -1.1635    0.0000 N   0  0  0  0  0  0  0  0  0  0  0  0
    2.5450   -1.1635    0.0000 C   0  0  0  0  0  0  0  0  0  0  0  0
    0.8950   -1.1635    0.0000 C   0  0  0  0  0  0  0  0  0  0  0  0
    1.7200   -0.3385    0.0000 C   0  0  0  0  0  0  0  0  0  0  0  0
    1.0055    0.0740    0.0000 C   0  0  0  0  0  0  0  0  0  0  0  0
    0.5930    0.7884    0.0000 C   0  0  0  0  0  0  0  0  0  0  0  0
    0.1805    0.0740    0.0000 O   0  0  0  0  0  0  0  0  0  0  0  0
  1  2  1  0
  2  3  1  0
  2  4  1  0
  2  5  1  0
  5  6  1  0
  7  6  1  0
  8  7  1  0
  6  8  1  0
M  CHG  1   2   1
M  END
>  <name>  (139) 
Glycidyl trimethylammonium chloride

>  <Outcome>  (139) 
1

>  <SMILES>  (139) 
C[N+](C)(C)CC1CO1

$$$$

     RDKit          2D

 23 20  0  0  0  0  0  0  0  0999 V2000
    0.0000    0.0000    0.0000 C   0  0  0  0  0  0  0  0  0  0  0  0
    1.2990    0.7500    0.0000 C   0  0  0  0  0  0  0  0  0  0  0  0
    2.5981   -0.0000    0.0000 C   0  0  0  0  0  0  0  0  0  0  0  0
    3.8971    0.7500    0.0000 C   0  0  0  0  0  0  0  0  0  0  0  0
    5.1962   -0.0000    0.0000 C   0  0  0  0  0  0  0  0  0  0  0  0
    6.4952    0.7500    0.0000 C   0  0  0  0  0  0  0  0  0  0  0  0
    7.7942   -0.0000    0.0000 C   0  0  0  0  0  0  0  0  0  0  0  0
    9.0933    0.7500    0.0000 C   0  0  0  0  0  0  0  0  0  0  0  0
   10.3923   -0.0000    0.0000 C   0  0  0  0  0  0  0  0  0  0  0  0
   10.3923   -1.5000    0.0000 O   0  0  0  0  0  0  0  0  0  0  0  0
   11.6913    0.7500    0.0000 O   0  0  0  0  0  1  0  0  0  0  0  0
    0.0000    3.2500    0.0000 C   0  0  0  0  0  0  0  0  0  0  0  0
    1.2990    4.0000    0.0000 C   0  0  0  0  0  0  0  0  0  0  0  0
    2.5981    3.2500    0.0000 C   0  0  0  0  0  0  0  0  0  0  0  0
    3.8971    4.0000    0.0000 C   0  0  0  0  0  0  0  0  0  0  0  0
    5.1962    3.2500    0.0000 C   0  0  0  0  0  0  0  0  0  0  0  0
    6.4952    4.0000    0.0000 C   0  0  0  0  0  0  0  0  0  0  0  0
    7.7942    3.2500    0.0000 C   0  0  0  0  0  0  0  0  0  0  0  0
    9.0933    4.0000    0.0000 C   0  0  0  0  0  0  0  0  0  0  0  0
   10.3923    3.2500    0.0000 C   0  0  0  0  0  0  0  0  0  0  0  0
   10.3923    1.7500    0.0000 O   0  0  0  0  0  0  0  0  0  0  0  0
   11.6913    4.0000    0.0000 O   0  0  0  0  0  1  0  0  0  0  0  0
    0.0000    5.0000    0.0000 Ni  0  0  0  0  0 15  0  0  0  0  0  0
  1  2  1  0
  2  3  1  0
  3  4  1  0
  4  5  1  0
  5  6  1  0
  6  7  1  0
  7  8  1  0
  8  9  1  0
  9 10  2  0
  9 11  1  0
 12 13  1  0
 13 14  1  0
 14 15  1  0
 15 16  1  0
 16 17  1  0
 17 18  1  0
 18 19  1  0
 19 20  1  0
 20 21  2  0
 20 22  1  0
M  CHG  3  11  -1  22  -1  23   2
M  END
>  <name>  (140) 
nickel(2+);nonanoate

>  <Outcome>  (140) 
2

>  <SMILES>  (140) 
CCCCCCCCC(=O)[O-].CCCCCCCCC(=O)[O-].[Ni+2]

$$$$

     RDKit          2D

  5  4  0  0  0  0  0  0  0  0999 V2000
    1.3358    0.3537    0.0000 C   0  0  0  0  0  0  0  0  0  0  0  0
    0.5108    0.3537    0.0000 C   0  0  0  0  0  0  0  0  0  0  0  0
    0.0983   -0.3608    0.0000 C   0  0  0  0  0  0  0  0  0  0  0  0
   -0.7267   -0.3608    0.0000 C   0  0  0  0  0  0  0  0  0  0  0  0
   -1.1392   -1.0753    0.0000 C   0  0  0  0  0  0  0  0  0  0  0  0
  1  2  1  0
  2  3  1  0
  3  4  2  3
  4  5  1  0
M  END
>  <name>  (141) 
Hydrocarbons, C5-unsatd.

>  <Outcome>  (141) 
0

>  <SMILES>  (141) 
CC=CCC

$$$$

     RDKit          2D

 17 19  0  0  0  0  0  0  0  0999 V2000
    1.5000    0.0000    0.0000 C   0  0  0  0  0  0  0  0  0  0  0  0
    0.7500   -1.2990    0.0000 C   0  0  0  0  0  0  0  0  0  0  0  0
   -0.7500   -1.2990    0.0000 C   0  0  0  0  0  0  0  0  0  0  0  0
   -1.5000    0.0000    0.0000 C   0  0  0  0  0  0  0  0  0  0  0  0
   -0.7500    1.2990    0.0000 C   0  0  0  0  0  0  0  0  0  0  0  0
    0.7500    1.2990    0.0000 C   0  0  0  0  0  0  0  0  0  0  0  0
   -1.5000    2.5981    0.0000 C   0  0  0  0  0  0  0  0  0  0  0  0
   -0.7500    3.8971    0.0000 O   0  0  0  0  0  0  0  0  0  0  0  0
   -3.0000    2.5981    0.0000 C   0  0  0  0  0  0  0  0  0  0  0  0
   -3.7500    1.2990    0.0000 C   0  0  0  0  0  0  0  0  0  0  0  0
   -3.0000    0.0000    0.0000 C   0  0  0  0  0  0  0  0  0  0  0  0
   -3.7500   -1.2990    0.0000 O   0  0  0  0  0  0  0  0  0  0  0  0
   -5.2500    1.2990    0.0000 C   0  0  0  0  0  0  0  0  0  0  0  0
   -6.0000    2.5981    0.0000 C   0  0  0  0  0  0  0  0  0  0  0  0
   -5.2500    3.8971    0.0000 C   0  0  0  0  0  0  0  0  0  0  0  0
   -3.7500    3.8971    0.0000 C   0  0  0  0  0  0  0  0  0  0  0  0
   -7.5000    2.5981    0.0000 N   0  0  0  0  0  0  0  0  0  0  0  0
  1  2  2  0
  2  3  1  0
  3  4  2  0
  4  5  1  0
  5  6  2  0
  5  7  1  0
  7  8  2  0
  7  9  1  0
  9 10  2  0
 10 11  1  0
 11 12  2  0
 10 13  1  0
 13 14  2  0
 14 15  1  0
 15 16  2  0
 14 17  1  0
  6  1  1  0
 11  4  1  0
 16  9  1  0
M  END
>  <name>  (142) 
2-aminoanthracene-9,10-dione

>  <Outcome>  (142) 
2

>  <SMILES>  (142) 
Nc1ccc2c(c1)C(=O)c1ccccc1C2=O

$$$$

     RDKit          2D

 14 11  0  0  0  0  0  0  0  0999 V2000
    0.0000    0.0000    0.0000 C   0  0  0  0  0  0  0  0  0  0  0  0
    1.2990    0.7500    0.0000 O   0  0  0  0  0  0  0  0  0  0  0  0
   -1.2990    0.7500    0.0000 P   0  0  0  0  0  4  0  0  0  0  0  0
   -2.5981    1.5000    0.0000 C   0  0  0  0  0  0  0  0  0  0  0  0
   -2.5981    3.0000    0.0000 O   0  0  0  0  0  0  0  0  0  0  0  0
   -2.0490   -0.5490    0.0000 C   0  0  0  0  0  0  0  0  0  0  0  0
   -3.5490   -0.5490    0.0000 O   0  0  0  0  0  0  0  0  0  0  0  0
   -0.5490    2.0490    0.0000 C   0  0  0  0  0  0  0  0  0  0  0  0
   -1.2990    3.3481    0.0000 O   0  0  0  0  0  0  0  0  0  0  0  0
    0.0000    5.8481    0.0000 C   0  0  0  0  0  0  0  0  0  0  0  0
   -0.0000    4.3481    0.0000 O   0  0  0  0  0  0  0  0  0  0  0  0
    1.2990    6.5981    0.0000 N   0  0  0  0  0  0  0  0  0  0  0  0
   -1.2990    6.5981    0.0000 N   0  0  0  0  0  0  0  0  0  0  0  0
    2.2990    0.0000    0.0000 Cl  0  0  0  0  0 15  0  0  0  0  0  0
  1  2  1  0
  1  3  1  0
  3  4  1  0
  4  5  1  0
  3  6  1  0
  6  7  1  0
  3  8  1  0
  8  9  1  0
 10 11  2  0
 10 12  1  0
 10 13  1  0
M  CHG  2   3   1  14  -1
M  END
>  <name>  (143) 
tetrakis(hydroxymethyl)phosphanium;urea;chloride

>  <Outcome>  (143) 
2

>  <SMILES>  (143) 
NC(N)=O.OC[P+](CO)(CO)CO.[Cl-]

$$$$

     RDKit          2D

  2  1  0  0  0  0  0  0  0  0999 V2000
    0.0000    0.0000    0.0000 O   0  0  0  0  0  0  0  0  0  0  0  0
    1.2990    0.7500    0.0000 Cu  0  0  0  0  0  2  0  0  0  0  0  0
  1  2  2  0
M  RAD  1   2   2
M  END
>  <name>  (144) 
oxocopper

>  <Outcome>  (144) 
2

>  <SMILES>  (144) 
O=[Cu]

$$$$

     RDKit          2D

  3  2  0  0  0  0  0  0  0  0999 V2000
    2.5936   -0.9862    0.0000 C   0  0  0  0  0  0  0  0  0  0  0  0
    2.1811   -0.2717    0.0000 O   0  0  0  0  0  0  0  0  0  0  0  0
    1.3561   -0.2717    0.0000 C   0  0  0  0  0  0  0  0  0  0  0  0
  1  2  1  0
  2  3  1  0
M  END
>  <name>  (145) 
methoxymethane

>  <Outcome>  (145) 
0

>  <SMILES>  (145) 
COC

$$$$

     RDKit          2D

  6  5  0  0  0  0  0  0  0  0999 V2000
    2.9509   -0.7972    0.0000 C   0  0  0  0  0  0  0  0  0  0  0  0
    2.1259   -0.7972    0.0000 C   0  0  0  0  0  0  0  0  0  0  0  0
    1.7134   -0.0827    0.0000 C   0  0  0  0  0  0  0  0  0  0  0  0
    2.1259    0.6318    0.0000 C   0  0  0  0  0  0  0  0  0  0  0  0
    0.8884   -0.0827    0.0000 C   0  0  0  0  0  0  0  0  0  0  0  0
    0.0634   -0.0827    0.0000 N   0  0  0  0  0  0  0  0  0  0  0  0
  1  2  2  0
  2  3  1  0
  3  4  1  0
  3  5  1  0
  5  6  3  0
M  END
>  <name>  (146) 
2-methylbut-3-enenitrile

>  <Outcome>  (146) 
1

>  <SMILES>  (146) 
C=CC(C)C#N

$$$$

     RDKit          2D

 29 33  0  0  0  0  0  0  0  0999 V2000
    3.5260   -1.2990    0.0000 C   0  0  0  0  0  0  0  0  0  0  0  0
    2.7760    0.0000    0.0000 C   0  0  0  0  0  0  0  0  0  0  0  0
    3.5260    1.2990    0.0000 C   0  0  0  0  0  0  0  0  0  0  0  0
    1.2760    0.0000    0.0000 C   0  0  0  0  0  0  0  0  0  0  0  0
    0.3943    1.2135    0.0000 C   0  0  0  0  0  0  0  0  0  0  0  0
   -1.0323    0.7500    0.0000 C   0  0  0  0  0  0  0  0  0  0  0  0
   -1.0323   -0.7500    0.0000 C   0  0  0  0  0  0  0  0  0  0  0  0
    0.3943   -1.2135    0.0000 O   0  0  0  0  0  0  0  0  0  0  0  0
   -2.3313   -1.5000    0.0000 C   0  0  0  0  0  0  0  0  0  0  0  0
   -3.6304   -0.7500    0.0000 C   0  0  0  0  0  0  0  0  0  0  0  0
   -3.6304    0.7500    0.0000 C   0  0  0  0  0  0  0  0  0  0  0  0
   -2.3313    1.5000    0.0000 C   0  0  0  0  0  0  0  0  0  0  0  0
   -2.3313    3.0000    0.0000 O   0  0  0  0  0  0  0  0  0  0  0  0
   -3.6304    3.7500    0.0000 C   0  0  0  0  0  0  0  0  0  0  0  0
   -3.6304    5.2500    0.0000 C   0  0  0  0  0  0  0  0  0  0  0  0
   -4.9294    6.0000    0.0000 O   0  0  0  0  0  0  0  0  0  0  0  0
   -6.2284    5.2500    0.0000 C   0  0  0  0  0  0  0  0  0  0  0  0
   -7.5275    6.0000    0.0000 C   0  0  0  0  0  0  0  0  0  0  0  0
   -8.8265    5.2500    0.0000 C   0  0  0  0  0  0  0  0  0  0  0  0
   -8.8265    3.7500    0.0000 C   0  0  0  0  0  0  0  0  0  0  0  0
   -7.5275    3.0000    0.0000 C   0  0  0  0  0  0  0  0  0  0  0  0
   -6.2284    3.7500    0.0000 C   0  0  0  0  0  0  0  0  0  0  0  0
   -4.9294    3.0000    0.0000 C   0  0  0  0  0  0  0  0  0  0  0  0
   -4.9294    1.5000    0.0000 C   0  0  0  0  0  0  0  0  0  0  0  0
   -6.2284    0.7500    0.0000 O   0  0  0  0  0  0  0  0  0  0  0  0
  -10.1256    3.0000    0.0000 O   0  0  0  0  0  0  0  0  0  0  0  0
  -11.4246    3.7500    0.0000 C   0  0  0  0  0  0  0  0  0  0  0  0
  -10.1256    6.0000    0.0000 O   0  0  0  0  0  0  0  0  0  0  0  0
  -10.1256    7.5000    0.0000 C   0  0  0  0  0  0  0  0  0  0  0  0
  1  2  1  0
  2  3  2  0
  2  4  1  0
  4  5  1  0
  5  6  1  0
  6  7  2  0
  7  8  1  0
  7  9  1  0
  9 10  2  0
 10 11  1  0
 11 12  2  0
 12 13  1  0
 13 14  1  0
 14 15  1  0
 15 16  1  0
 16 17  1  0
 17 18  2  0
 18 19  1  0
 19 20  2  0
 20 21  1  0
 21 22  2  0
 22 23  1  0
 23 24  1  0
 24 25  2  0
 20 26  1  0
 26 27  1  0
 19 28  1  0
 28 29  1  0
  8  4  1  0
 12  6  1  0
 24 11  1  0
 23 14  1  0
 22 17  1  0
M  END
>  <name>  (147) 
(1S,6R,13S)-16,17-dimethoxy-6-prop-1-en-2-yl-2,7,20-trioxapentacyclo[11.8.0.03,11.04,8.014,19]henicosa-3(11),4(8),9,14,16,18-hexaen-12-one

>  <Outcome>  (147) 
2

>  <SMILES>  (147) 
C=C(C)C1Cc2c(ccc3c2OC2COc4cc(OC)c(OC)cc4C2C3=O)O1

$$$$

     RDKit          2D

  8  8  0  0  0  0  0  0  0  0999 V2000
    1.9711   -0.0822    0.0000 C   0  0  0  0  0  0  0  0  0  0  0  0
    1.1507   -0.1684    0.0000 C   0  0  0  0  0  0  0  0  0  0  0  0
    0.6657    0.4990    0.0000 N   0  0  0  0  0  0  0  0  0  0  0  0
   -0.1593    0.4990    0.0000 C   0  0  0  0  0  0  0  0  0  0  0  0
   -0.4142    1.2836    0.0000 C   0  0  0  0  0  0  0  0  0  0  0  0
    0.2532    1.7686    0.0000 C   0  0  0  0  0  0  0  0  0  0  0  0
    0.9207    1.2836    0.0000 C   0  0  0  0  0  0  0  0  0  0  0  0
    1.7053    1.5386    0.0000 O   0  0  0  0  0  0  0  0  0  0  0  0
  1  2  2  0
  2  3  1  0
  3  4  1  0
  4  5  1  0
  5  6  1  0
  6  7  1  0
  3  7  1  0
  7  8  2  0
M  END
>  <name>  (148) 
1-ethenylpyrrolidin-2-one

>  <Outcome>  (148) 
1

>  <SMILES>  (148) 
C=CN1CCCC1=O

$$$$

     RDKit          2D

 14 14  0  0  0  0  0  0  0  0999 V2000
    2.8593    1.6508    0.0000 O   0  0  0  0  0  0  0  0  0  0  0  0
    2.1448    2.0633    0.0000 C   0  0  0  0  0  0  0  0  0  0  0  0
    1.4303    2.4758    0.0000 N   0  0  0  0  0  0  0  0  0  0  0  0
    0.7159    2.0633    0.0000 C   0  0  0  0  0  0  0  0  0  0  0  0
    0.7159    1.2383    0.0000 C   0  0  0  0  0  0  0  0  0  0  0  0
    1.4303    0.8258    0.0000 C   0  0  0  0  0  0  0  0  0  0  0  0
    1.4303    0.0008    0.0000 C   0  0  0  0  0  0  0  0  0  0  0  0
    0.7159   -0.4117    0.0000 C   0  0  0  0  0  0  0  0  0  0  0  0
    0.0014    0.0008    0.0000 C   0  0  0  0  0  0  0  0  0  0  0  0
   -0.7131   -0.4117    0.0000 C   0  0  0  0  0  0  0  0  0  0  0  0
   -1.4276    0.0008    0.0000 N   0  0  0  0  0  0  0  0  0  0  0  0
   -2.1420   -0.4117    0.0000 C   0  0  0  0  0  0  0  0  0  0  0  0
   -2.8565   -0.8242    0.0000 O   0  0  0  0  0  0  0  0  0  0  0  0
    0.0014    0.8258    0.0000 C   0  0  0  0  0  0  0  0  0  0  0  0
  1  2  2  0
  2  3  2  0
  3  4  1  0
  4  5  1  0
  5  6  2  0
  6  7  1  0
  7  8  2  0
  8  9  1  0
  9 10  1  0
 10 11  1  0
 11 12  2  0
 12 13  2  0
  9 14  2  0
  5 14  1  0
M  END
>  <name>  (149) 
1,3-bis(isocyanatomethyl)benzene

>  <Outcome>  (149) 
1

>  <SMILES>  (149) 
O=C=NCc1cccc(CN=C=O)c1

$$$$

     RDKit          2D

 12 12  0  0  0  0  0  0  0  0999 V2000
   -0.0000    2.4750    0.0000 O   0  0  0  0  0  0  0  0  0  0  0  0
    0.7145    2.0625    0.0000 C   0  0  0  0  0  0  0  0  0  0  0  0
    1.4289    2.4750    0.0000 O   0  0  0  0  0  0  0  0  0  0  0  0
    0.7145    1.2375    0.0000 C   0  0  0  0  0  0  0  0  0  0  0  0
    1.4289    0.8250    0.0000 C   0  0  0  0  0  0  0  0  0  0  0  0
    1.4289    0.0000    0.0000 C   0  0  0  0  0  0  0  0  0  0  0  0
    2.1434   -0.4125    0.0000 F   0  0  0  0  0  0  0  0  0  0  0  0
    0.7145   -0.4125    0.0000 C   0  0  0  0  0  0  0  0  0  0  0  0
    0.7145   -1.2375    0.0000 Br  0  0  0  0  0  0  0  0  0  0  0  0
   -0.0000    0.0000    0.0000 C   0  0  0  0  0  0  0  0  0  0  0  0
   -0.0000    0.8250    0.0000 C   0  0  0  0  0  0  0  0  0  0  0  0
   -0.7145    1.2375    0.0000 Cl  0  0  0  0  0  0  0  0  0  0  0  0
  1  2  2  0
  2  3  1  0
  2  4  1  0
  4  5  2  0
  5  6  1  0
  6  7  1  0
  6  8  2  0
  8  9  1  0
  8 10  1  0
 10 11  2  0
  4 11  1  0
 11 12  1  0
M  END
>  <name>  (150) 
1,3,5-trimethylbenzene; 1-ethyl-4-methylbenzene; prop-1-en-2-ylbenzene; propan-2-ylbenzene; propylbenzene

>  <Outcome>  (150) 
1

>  <SMILES>  (150) 
O=C(O)c1cc(F)c(Br)cc1Cl

$$$$

     RDKit          2D

 16 15  0  0  0  0  0  0  0  0999 V2000
   -2.2235    3.0365    0.0000 C   0  0  0  0  0  0  0  0  0  0  0  0
   -1.5091    3.4490    0.0000 C   0  0  0  0  0  0  0  0  0  0  0  0
   -1.5091    4.2740    0.0000 C   0  0  0  0  0  0  0  0  0  0  0  0
   -0.7946    3.0365    0.0000 O   0  0  0  0  0  0  0  0  0  0  0  0
   -0.0801    3.4490    0.0000 C   0  0  0  0  0  0  0  0  0  0  0  0
   -0.0801    4.2740    0.0000 O   0  0  0  0  0  0  0  0  0  0  0  0
    0.6344    3.0365    0.0000 C   0  0  0  0  0  0  0  0  0  0  0  0
    1.3488    3.4490    0.0000 C   0  0  0  0  0  0  0  0  0  0  0  0
    2.0633    3.0365    0.0000 C   0  0  0  0  0  0  0  0  0  0  0  0
    2.7778    3.4490    0.0000 C   0  0  0  0  0  0  0  0  0  0  0  0
    3.4922    3.0365    0.0000 C   0  0  0  0  0  0  0  0  0  0  0  0
    3.4922    2.2115    0.0000 O   0  0  0  0  0  0  0  0  0  0  0  0
    4.2067    3.4490    0.0000 O   0  0  0  0  0  0  0  0  0  0  0  0
    4.9212    3.0365    0.0000 C   0  0  0  0  0  0  0  0  0  0  0  0
    5.6356    3.4490    0.0000 C   0  0  0  0  0  0  0  0  0  0  0  0
    4.9212    2.2115    0.0000 C   0  0  0  0  0  0  0  0  0  0  0  0
  1  2  1  0
  2  3  1  0
  2  4  1  0
  4  5  1  0
  5  6  2  0
  5  7  1  0
  7  8  1  0
  8  9  1  0
  9 10  1  0
 10 11  1  0
 11 12  2  0
 11 13  1  0
 13 14  1  0
 14 15  1  0
 14 16  1  0
M  END
>  <name>  (151) 
Diisopropyl adipate

>  <Outcome>  (151) 
0

>  <SMILES>  (151) 
CC(C)OC(=O)CCCCC(=O)OC(C)C

$$$$

     RDKit          2D

  6  6  0  0  0  0  0  0  0  0999 V2000
   -0.3006    2.9926    0.0000 C   0  0  0  0  0  0  0  0  0  0  0  0
   -0.3006    2.1676    0.0000 C   0  0  0  0  0  0  0  0  0  0  0  0
    0.4139    1.7551    0.0000 C   0  0  0  0  0  0  0  0  0  0  0  0
    0.4139    0.9301    0.0000 C   0  0  0  0  0  0  0  0  0  0  0  0
    0.8264    0.2156    0.0000 C   0  0  0  0  0  0  0  0  0  0  0  0
    0.0014    0.2156    0.0000 O   0  0  0  0  0  0  0  0  0  0  0  0
  1  2  1  0
  2  3  1  0
  3  4  1  0
  4  5  1  0
  5  6  1  0
  4  6  1  0
M  END
>  <name>  (152) 
2-propyloxirane

>  <Outcome>  (152) 
1

>  <SMILES>  (152) 
CCCC1CO1

$$$$

     RDKit          2D

 18  4  0  0  0  0  0  0  0  0999 V2000
    0.0000    0.0000    0.0000 O   0  0  0  0  0  1  0  0  0  0  0  0
    1.0000    0.0000    0.0000 O   0  0  0  0  0  1  0  0  0  0  0  0
    0.0000    1.0000    0.0000 O   0  0  0  0  0  1  0  0  0  0  0  0
    2.0000    0.0000    0.0000 O   0  0  0  0  0  1  0  0  0  0  0  0
    0.0000    2.0000    0.0000 O   0  0  0  0  0  1  0  0  0  0  0  0
    3.0000    0.0000    0.0000 O   0  0  0  0  0  1  0  0  0  0  0  0
    0.0000    3.0000    0.0000 O   0  0  0  0  0  1  0  0  0  0  0  0
    4.0000    0.0000    0.0000 O   0  0  0  0  0  1  0  0  0  0  0  0
    0.0000    4.5490    0.0000 O   0  0  0  0  0  1  0  0  0  0  0  0
    1.2990    5.2990    0.0000 Cr  0  0  0  0  0  6  0  0  0  0  0  0
    2.0490    4.0000    0.0000 O   0  0  0  0  0  0  0  0  0  0  0  0
    0.5490    6.5981    0.0000 O   0  0  0  0  0  0  0  0  0  0  0  0
    2.5981    6.0490    0.0000 O   0  0  0  0  0  1  0  0  0  0  0  0
    5.0000    0.0000    0.0000 Zn  0  0  0  0  0 15  0  0  0  0  0  0
    6.0000    0.0000    0.0000 Zn  0  0  0  0  0 15  0  0  0  0  0  0
    7.0000    0.0000    0.0000 Zn  0  0  0  0  0 15  0  0  0  0  0  0
    0.0000    7.5981    0.0000 Zn  0  0  0  0  0 15  0  0  0  0  0  0
    8.0000    0.0000    0.0000 Zn  0  0  0  0  0 15  0  0  0  0  0  0
  9 10  1  0
 10 11  2  0
 10 12  2  0
 10 13  1  0
M  CHG  8   1  -1   2  -1   3  -1   4  -1   5  -1   6  -1   7  -1   8  -1
M  CHG  7   9  -1  13  -1  14   2  15   2  16   2  17   2  18   2
M  END
>  <name>  (153) 
pentazinc;dioxido(dioxo)chromium;octahydroxide

>  <Outcome>  (153) 
2

>  <SMILES>  (153) 
O=[Cr](=O)([O-])[O-].[OH-].[OH-].[OH-].[OH-].[OH-].[OH-].[OH-].[OH-].[Zn+2].[Zn+2].[Zn+2].[Zn+2].[Zn+2]

$$$$

     RDKit          2D

 11 10  0  0  0  0  0  0  0  0999 V2000
    0.0000    0.0000    0.0000 C   0  0  0  0  0  0  0  0  0  0  0  0
    1.2990    0.7500    0.0000 C   0  0  0  0  0  0  0  0  0  0  0  0
    2.5981   -0.0000    0.0000 O   0  0  0  0  0  0  0  0  0  0  0  0
    3.8971    0.7500    0.0000 Si  0  0  0  0  0  4  0  0  0  0  0  0
    5.1962    1.5000    0.0000 C   0  0  0  0  0  0  0  0  0  0  0  0
    3.1471    2.0490    0.0000 O   0  0  0  0  0  0  0  0  0  0  0  0
    3.8971    3.3481    0.0000 C   0  0  0  0  0  0  0  0  0  0  0  0
    3.1471    4.6471    0.0000 C   0  0  0  0  0  0  0  0  0  0  0  0
    4.6471   -0.5490    0.0000 O   0  0  0  0  0  0  0  0  0  0  0  0
    6.1471   -0.5490    0.0000 C   0  0  0  0  0  0  0  0  0  0  0  0
    6.8971   -1.8481    0.0000 C   0  0  0  0  0  0  0  0  0  0  0  0
  1  2  1  0
  2  3  1  0
  3  4  1  0
  4  5  1  0
  4  6  1  0
  6  7  1  0
  7  8  1  0
  4  9  1  0
  9 10  1  0
 10 11  1  0
M  END
>  <name>  (154) 
triethoxy(methyl)silane

>  <Outcome>  (154) 
2

>  <SMILES>  (154) 
CCO[Si](C)(OCC)OCC

$$$$

     RDKit          2D

 19 19  0  0  0  0  0  0  0  0999 V2000
   -0.1471   -6.5490    0.0000 C   0  0  0  0  0  0  0  0  0  0  0  0
    1.1519   -5.7990    0.0000 C   0  0  0  0  0  0  0  0  0  0  0  0
    1.1519   -4.2990    0.0000 C   0  0  0  0  0  0  0  0  0  0  0  0
    2.4510   -3.5490    0.0000 C   0  0  0  0  0  0  0  0  0  0  0  0
    2.4510   -2.0490    0.0000 O   0  0  0  0  0  0  0  0  0  0  0  0
    3.7500   -1.2990    0.0000 P   0  0  0  0  0  0  0  0  0  0  0  0
    5.0490   -0.5490    0.0000 O   0  0  0  0  0  0  0  0  0  0  0  0
    4.5000   -2.5981    0.0000 O   0  0  0  0  0  0  0  0  0  0  0  0
    3.7500   -3.8971    0.0000 C   0  0  0  0  0  0  0  0  0  0  0  0
    4.5000   -5.1962    0.0000 C   0  0  0  0  0  0  0  0  0  0  0  0
    3.7500   -6.4952    0.0000 C   0  0  0  0  0  0  0  0  0  0  0  0
    4.5000   -7.7942    0.0000 C   0  0  0  0  0  0  0  0  0  0  0  0
    3.0000    0.0000    0.0000 O   0  0  0  0  0  0  0  0  0  0  0  0
    1.5000    0.0000    0.0000 C   0  0  0  0  0  0  0  0  0  0  0  0
    0.7500   -1.2990    0.0000 C   0  0  0  0  0  0  0  0  0  0  0  0
   -0.7500   -1.2990    0.0000 C   0  0  0  0  0  0  0  0  0  0  0  0
   -1.5000    0.0000    0.0000 C   0  0  0  0  0  0  0  0  0  0  0  0
   -0.7500    1.2990    0.0000 C   0  0  0  0  0  0  0  0  0  0  0  0
    0.7500    1.2990    0.0000 C   0  0  0  0  0  0  0  0  0  0  0  0
  1  2  1  0
  2  3  1  0
  3  4  1  0
  4  5  1  0
  5  6  1  0
  6  7  2  0
  6  8  1  0
  8  9  1  0
  9 10  1  0
 10 11  1  0
 11 12  1  0
  6 13  1  0
 13 14  1  0
 14 15  2  0
 15 16  1  0
 16 17  2  0
 17 18  1  0
 18 19  2  0
 19 14  1  0
M  END
>  <name>  (155) 
dibutyl phenyl phosphate

>  <Outcome>  (155) 
2

>  <SMILES>  (155) 
CCCCOP(=O)(OCCCC)Oc1ccccc1

$$$$

     RDKit          2D

  2  0  0  0  0  0  0  0  0  0999 V2000
    0.0000    0.0000    0.0000 B   0  0  0  0  0  4  0  0  0  0  0  0
    1.0000    0.0000    0.0000 Na  0  0  0  0  0 15  0  0  0  0  0  0
M  CHG  2   1  -1   2   1
M  END
>  <name>  (156) 
sodium;boranuide

>  <Outcome>  (156) 
2

>  <SMILES>  (156) 
[BH4-].[Na+]

$$$$

     RDKit          2D

  7  7  0  0  0  0  0  0  0  0999 V2000
    0.8556    1.3610    0.0000 C   0  0  0  0  0  0  0  0  0  0  0  0
    1.5989    1.0031    0.0000 C   0  0  0  0  0  0  0  0  0  0  0  0
    1.7824    0.1987    0.0000 C   0  0  0  0  0  0  0  0  0  0  0  0
    1.2681   -0.4463    0.0000 O   0  0  0  0  0  0  0  0  0  0  0  0
    0.4431   -0.4463    0.0000 C   0  0  0  0  0  0  0  0  0  0  0  0
   -0.0713    0.1987    0.0000 O   0  0  0  0  0  0  0  0  0  0  0  0
    0.1123    1.0031    0.0000 C   0  0  0  0  0  0  0  0  0  0  0  0
  1  2  1  0
  2  3  1  0
  3  4  1  0
  4  5  1  0
  5  6  1  0
  6  7  1  0
  1  7  1  0
M  END
>  <name>  (157) 
1,3-dioxepane

>  <Outcome>  (157) 
0

>  <SMILES>  (157) 
C1CCOCOC1

$$$$

     RDKit          2D

 10  9  0  0  0  0  0  0  0  0999 V2000
    2.9980    2.5559    0.0000 C   0  0  0  0  0  0  0  0  0  0  0  0
    3.7125    2.1434    0.0000 C   0  0  0  0  0  0  0  0  0  0  0  0
    4.4270    2.5559    0.0000 C   0  0  0  0  0  0  0  0  0  0  0  0
    5.1414    2.1434    0.0000 C   0  0  0  0  0  0  0  0  0  0  0  0
    5.8559    2.5559    0.0000 C   0  0  0  0  0  0  0  0  0  0  0  0
    6.5704    2.1434    0.0000 C   0  0  0  0  0  0  0  0  0  0  0  0
    7.2849    2.5559    0.0000 C   0  0  0  0  0  0  0  0  0  0  0  0
    7.9993    2.1434    0.0000 C   0  0  0  0  0  0  0  0  0  0  0  0
    8.7138    2.5559    0.0000 O   0  0  0  0  0  0  0  0  0  0  0  0
    7.9993    1.3184    0.0000 Cl  0  0  0  0  0  0  0  0  0  0  0  0
  1  2  1  0
  2  3  1  0
  3  4  1  0
  4  5  1  0
  5  6  1  0
  6  7  1  0
  7  8  1  0
  8  9  2  0
  8 10  1  0
M  END
>  <name>  (158) 
octanoyl chloride

>  <Outcome>  (158) 
1

>  <SMILES>  (158) 
CCCCCCCC(=O)Cl

$$$$

     RDKit          2D

 12 12  0  0  0  0  0  0  0  0999 V2000
    1.4307    2.4760    0.0000 O   0  0  0  0  0  0  0  0  0  0  0  0
    0.7163    2.0635    0.0000 C   0  0  0  0  0  0  0  0  0  0  0  0
    0.0018    2.4760    0.0000 C   0  0  0  0  0  0  0  0  0  0  0  0
    0.0018    3.3010    0.0000 Cl  0  0  0  0  0  0  0  0  0  0  0  0
    0.7163    1.2385    0.0000 C   0  0  0  0  0  0  0  0  0  0  0  0
    1.4307    0.8260    0.0000 C   0  0  0  0  0  0  0  0  0  0  0  0
    1.4307    0.0010    0.0000 C   0  0  0  0  0  0  0  0  0  0  0  0
    0.7163   -0.4115    0.0000 C   0  0  0  0  0  0  0  0  0  0  0  0
    0.7163   -1.2365    0.0000 F   0  0  0  0  0  0  0  0  0  0  0  0
    0.0018    0.0010    0.0000 C   0  0  0  0  0  0  0  0  0  0  0  0
    0.0018    0.8260    0.0000 C   0  0  0  0  0  0  0  0  0  0  0  0
   -0.7127    1.2385    0.0000 F   0  0  0  0  0  0  0  0  0  0  0  0
  1  2  2  0
  2  3  1  0
  3  4  1  0
  2  5  1  0
  5  6  2  0
  6  7  1  0
  7  8  2  0
  8  9  1  0
  8 10  1  0
 10 11  2  0
  5 11  1  0
 11 12  1  0
M  END
>  <name>  (159) 
-

>  <Outcome>  (159) 
1

>  <SMILES>  (159) 
O=C(CCl)c1ccc(F)cc1F

$$$$

     RDKit          2D

  9  8  0  0  0  0  0  0  0  0999 V2000
   -0.6305   -0.7381    0.0000 C   0  0  0  0  0  0  0  0  0  0  0  0
    0.0840   -1.1506    0.0000 C   0  0  0  0  0  0  0  0  0  0  0  0
    0.7985   -0.7381    0.0000 C   0  0  0  0  0  0  0  0  0  0  0  0
    0.7985    0.0869    0.0000 O   0  0  0  0  0  0  0  0  0  0  0  0
    1.5130   -1.1506    0.0000 O   0  0  0  0  0  0  0  0  0  0  0  0
    2.2274   -0.7381    0.0000 C   0  0  0  0  0  0  0  0  0  0  0  0
    2.2274    0.0869    0.0000 O   0  0  0  0  0  0  0  0  0  0  0  0
    2.9419   -1.1506    0.0000 C   0  0  0  0  0  0  0  0  0  0  0  0
    3.6564   -0.7381    0.0000 C   0  0  0  0  0  0  0  0  0  0  0  0
  1  2  1  0
  2  3  1  0
  3  4  2  0
  3  5  1  0
  5  6  1  0
  6  7  2  0
  6  8  1  0
  8  9  1  0
M  END
>  <name>  (160) 
Propanoic anhydride

>  <Outcome>  (160) 
0

>  <SMILES>  (160) 
CCC(=O)OC(=O)CC

$$$$

     RDKit          2D

 14 13  0  0  0  0  0  0  0  0999 V2000
    0.0000    0.0000    0.0000 C   0  0  0  0  0  0  0  0  0  0  0  0
    1.2990    0.7500    0.0000 C   0  0  0  0  0  0  0  0  0  0  0  0
    2.5981   -0.0000    0.0000 C   0  0  0  0  0  0  0  0  0  0  0  0
    3.8971    0.7500    0.0000 C   0  0  0  0  0  0  0  0  0  0  0  0
    5.1962   -0.0000    0.0000 C   0  0  0  0  0  0  0  0  0  0  0  0
    6.4952    0.7500    0.0000 C   0  0  0  0  0  0  0  0  0  0  0  0
    7.7942   -0.0000    0.0000 C   0  0  0  0  0  0  0  0  0  0  0  0
    9.0933    0.7500    0.0000 C   0  0  0  0  0  0  0  0  0  0  0  0
   10.3923   -0.0000    0.0000 C   0  0  0  0  0  0  0  0  0  0  0  0
   11.6913    0.7500    0.0000 C   0  0  0  0  0  0  0  0  0  0  0  0
   12.9904   -0.0000    0.0000 C   0  0  0  0  0  0  0  0  0  0  0  0
   14.2894    0.7500    0.0000 C   0  0  0  0  0  0  0  0  0  0  0  0
   15.5885   -0.0000    0.0000 C   0  0  0  0  0  0  0  0  0  0  0  0
   16.8875    0.7500    0.0000 O   0  0  0  0  0  0  0  0  0  0  0  0
  1  2  1  0
  2  3  1  0
  3  4  1  0
  4  5  1  0
  5  6  1  0
  6  7  1  0
  7  8  1  0
  8  9  1  0
  9 10  1  0
 10 11  1  0
 11 12  1  0
 12 13  1  0
 13 14  1  0
M  END
>  <name>  (161) 
tridecan-1-ol

>  <Outcome>  (161) 
2

>  <SMILES>  (161) 
CCCCCCCCCCCCCO

$$$$

     RDKit          2D

  5  4  0  0  0  0  0  0  0  0999 V2000
    0.0000    0.0000    0.0000 C   0  0  0  0  0  0  0  0  0  0  0  0
    1.2990    0.7500    0.0000 Si  0  0  0  0  0  4  0  0  0  0  0  0
    2.5981    1.5000    0.0000 C   0  0  0  0  0  0  0  0  0  0  0  0
    2.0490   -0.5490    0.0000 C   0  0  0  0  0  0  0  0  0  0  0  0
    0.5490    2.0490    0.0000 Cl  0  0  0  0  0  0  0  0  0  0  0  0
  1  2  1  0
  2  3  1  0
  2  4  1  0
  2  5  1  0
M  END
>  <name>  (162) 
chloro(trimethyl)silane

>  <Outcome>  (162) 
2

>  <SMILES>  (162) 
C[Si](C)(C)Cl

$$$$

     RDKit          2D

 10 11  0  0  0  0  0  0  0  0999 V2000
    0.7188   -1.1585    0.0000 C   0  0  0  0  0  0  0  0  0  0  0  0
    0.7188   -0.3335    0.0000 C   0  0  0  0  0  0  0  0  0  0  0  0
    1.4333    0.0790    0.0000 C   0  0  0  0  0  0  0  0  0  0  0  0
    2.1478   -0.3335    0.0000 C   0  0  0  0  0  0  0  0  0  0  0  0
    2.8622    0.0790    0.0000 C   0  0  0  0  0  0  0  0  0  0  0  0
    3.5767   -0.3335    0.0000 C   0  0  0  0  0  0  0  0  0  0  0  0
    3.5767   -1.1585    0.0000 C   0  0  0  0  0  0  0  0  0  0  0  0
    2.8622   -1.5710    0.0000 C   0  0  0  0  0  0  0  0  0  0  0  0
    2.1478   -1.1585    0.0000 C   0  0  0  0  0  0  0  0  0  0  0  0
    1.4333   -1.5710    0.0000 C   0  0  0  0  0  0  0  0  0  0  0  0
  1  2  1  0
  2  3  1  0
  3  4  1  0
  4  5  1  0
  5  6  1  0
  6  7  1  0
  7  8  1  0
  8  9  1  0
  4  9  1  0
  9 10  1  0
  1 10  1  0
M  END
>  <name>  (163) 
decahydronaphthalene

>  <Outcome>  (163) 
1

>  <SMILES>  (163) 
C1CCC2CCCCC2C1

$$$$

     RDKit          2D

  8  7  0  0  0  0  0  0  0  0999 V2000
   -0.5043    0.8683    0.0000 C   0  0  0  0  0  0  0  0  0  0  0  0
    0.2102    1.2808    0.0000 C   0  0  0  0  0  0  0  0  0  0  0  0
    0.2102    2.1058    0.0000 C   0  0  0  0  0  0  0  0  0  0  0  0
    0.9246    0.8683    0.0000 C   0  0  0  0  0  0  0  0  0  0  0  0
    1.6391    1.2808    0.0000 C   0  0  0  0  0  0  0  0  0  0  0  0
    2.3536    0.8683    0.0000 C   0  0  0  0  0  0  0  0  0  0  0  0
    3.0680    1.2808    0.0000 C   0  0  0  0  0  0  0  0  0  0  0  0
    2.3536    0.0433    0.0000 O   0  0  0  0  0  0  0  0  0  0  0  0
  1  2  1  0
  2  3  1  0
  2  4  1  0
  4  5  1  0
  5  6  1  0
  6  7  1  0
  6  8  2  0
M  END
>  <name>  (164) 
5-Methyl-2-hexanone

>  <Outcome>  (164) 
0

>  <SMILES>  (164) 
CC(=O)CCC(C)C

$$$$

     RDKit          2D

  2  1  0  0  0  0  0  0  0  0999 V2000
    0.8250    0.0000    0.0000 C   0  0  0  0  0  0  0  0  0  0  0  0
    0.0000   -0.0000    0.0000 N   0  0  0  0  0  0  0  0  0  0  0  0
  1  2  3  0
M  END
>  <name>  (165) 
formonitrile

>  <Outcome>  (165) 
1

>  <SMILES>  (165) 
C#N

$$$$

     RDKit          2D

 20 24  0  0  0  0  0  0  0  0999 V2000
    1.5000    0.0000    0.0000 C   0  0  0  0  0  0  0  0  0  0  0  0
    0.7500   -1.2990    0.0000 C   0  0  0  0  0  0  0  0  0  0  0  0
   -0.7500   -1.2990    0.0000 C   0  0  0  0  0  0  0  0  0  0  0  0
   -1.5000    0.0000    0.0000 C   0  0  0  0  0  0  0  0  0  0  0  0
   -3.0000    0.0000    0.0000 C   0  0  0  0  0  0  0  0  0  0  0  0
   -3.7500    1.2990    0.0000 C   0  0  0  0  0  0  0  0  0  0  0  0
   -3.0000    2.5981    0.0000 C   0  0  0  0  0  0  0  0  0  0  0  0
   -1.5000    2.5981    0.0000 C   0  0  0  0  0  0  0  0  0  0  0  0
   -0.7500    1.2990    0.0000 C   0  0  0  0  0  0  0  0  0  0  0  0
    0.7500    1.2990    0.0000 C   0  0  0  0  0  0  0  0  0  0  0  0
   -3.7500    3.8971    0.0000 C   0  0  0  0  0  0  0  0  0  0  0  0
   -5.2500    3.8971    0.0000 C   0  0  0  0  0  0  0  0  0  0  0  0
   -6.0000    2.5981    0.0000 C   0  0  0  0  0  0  0  0  0  0  0  0
   -5.2500    1.2990    0.0000 C   0  0  0  0  0  0  0  0  0  0  0  0
   -6.0000    0.0000    0.0000 C   0  0  0  0  0  0  0  0  0  0  0  0
   -7.5000    0.0000    0.0000 C   0  0  0  0  0  0  0  0  0  0  0  0
   -8.2500    1.2990    0.0000 C   0  0  0  0  0  0  0  0  0  0  0  0
   -7.5000    2.5981    0.0000 C   0  0  0  0  0  0  0  0  0  0  0  0
   -5.2500   -1.2990    0.0000 C   0  0  0  0  0  0  0  0  0  0  0  0
   -3.7500   -1.2990    0.0000 C   0  0  0  0  0  0  0  0  0  0  0  0
  1  2  2  0
  2  3  1  0
  3  4  2  0
  4  5  1  0
  5  6  2  0
  6  7  1  0
  7  8  2  0
  8  9  1  0
  9 10  2  0
  7 11  1  0
 11 12  2  0
 12 13  1  0
 13 14  2  0
 14 15  1  0
 15 16  2  0
 16 17  1  0
 17 18  2  0
 15 19  1  0
 19 20  2  0
 10  1  1  0
  9  4  1  0
 20  5  1  0
 14  6  1  0
 18 13  1  0
M  END
>  <name>  (166) 
benzo[a]pyrene

>  <Outcome>  (166) 
2

>  <SMILES>  (166) 
c1ccc2c(c1)cc1ccc3cccc4ccc2c1c34

$$$$

     RDKit          2D

  5  4  0  0  0  0  0  0  0  0999 V2000
    1.8472   -0.6905    0.0000 N   0  0  0  0  0  0  0  0  0  0  0  0
    1.4347    0.0240    0.0000 C   0  0  0  0  0  0  0  0  0  0  0  0
    0.6097    0.0240    0.0000 C   0  0  0  0  0  0  0  0  0  0  0  0
    0.1972    0.7385    0.0000 C   0  0  0  0  0  0  0  0  0  0  0  0
   -0.6278    0.7385    0.0000 N   0  0  0  0  0  0  0  0  0  0  0  0
  1  2  1  0
  2  3  1  0
  3  4  1  0
  4  5  1  0
M  END
>  <name>  (167) 
1,3-Diaminopropane

>  <Outcome>  (167) 
1

>  <SMILES>  (167) 
NCCCN

$$$$

     RDKit          2D

 11 10  0  0  0  0  0  0  0  0999 V2000
    4.2355    3.2714    0.0000 C   0  0  0  0  0  0  0  0  0  0  0  0
    4.9500    2.8589    0.0000 C   0  0  0  0  0  0  0  0  0  0  0  0
    5.6645    3.2714    0.0000 C   0  0  0  0  0  0  0  0  0  0  0  0
    6.3789    2.8589    0.0000 C   0  0  0  0  0  0  0  0  0  0  0  0
    7.0934    3.2714    0.0000 C   0  0  0  0  0  0  0  0  0  0  0  0
    7.8079    2.8589    0.0000 C   0  0  0  0  0  0  0  0  0  0  0  0
    8.5224    3.2714    0.0000 C   0  0  0  0  0  0  0  0  0  0  0  0
    9.2368    2.8589    0.0000 C   0  0  0  0  0  0  0  0  0  0  0  0
    9.9513    3.2714    0.0000 C   0  0  0  0  0  0  0  0  0  0  0  0
   10.6658    2.8589    0.0000 C   0  0  0  0  0  0  0  0  0  0  0  0
   11.3802    3.2714    0.0000 C   0  0  0  0  0  0  0  0  0  0  0  0
  1  2  1  0
  2  3  1  0
  3  4  1  0
  4  5  1  0
  5  6  1  0
  6  7  1  0
  7  8  1  0
  8  9  1  0
  9 10  1  0
 10 11  1  0
M  END
>  <name>  (168) 
undecane

>  <Outcome>  (168) 
0

>  <SMILES>  (168) 
CCCCCCCCCCC

$$$$

     RDKit          2D

 10  9  0  0  0  0  0  0  0  0999 V2000
   -2.3349    1.1284    0.0000 C   0  0  0  0  0  0  0  0  0  0  0  0
   -1.6204    0.7159    0.0000 C   0  0  0  0  0  0  0  0  0  0  0  0
   -0.9059    1.1284    0.0000 C   0  0  0  0  0  0  0  0  0  0  0  0
   -0.1915    0.7159    0.0000 C   0  0  0  0  0  0  0  0  0  0  0  0
    0.5230    1.1284    0.0000 C   0  0  0  0  0  0  0  0  0  0  0  0
    1.2375    0.7159    0.0000 C   0  0  0  0  0  0  0  0  0  0  0  0
    1.9519    1.1284    0.0000 O   0  0  0  0  0  0  0  0  0  0  0  0
    2.6664    0.7159    0.0000 C   0  0  0  0  0  0  0  0  0  0  0  0
    3.3809    1.1284    0.0000 C   0  0  0  0  0  0  0  0  0  0  0  0
    2.6664   -0.1091    0.0000 O   0  0  0  0  0  0  0  0  0  0  0  0
  1  2  1  0
  3  2  1  0
  3  4  2  3
  4  5  1  0
  5  6  1  0
  6  7  1  0
  7  8  1  0
  8  9  1  0
  8 10  2  0
M  END
>  <name>  (169) 
(3Z)-hex-3-en-1-yl acetate

>  <Outcome>  (169) 
0

>  <SMILES>  (169) 
CCC=CCCOC(C)=O

$$$$

     RDKit          2D

 15 15  0  0  0  0  0  0  0  0999 V2000
    1.2762    1.9380    0.0000 C   0  0  0  0  0  0  0  0  0  0  0  0
    0.7242    1.3249    0.0000 C   0  0  0  0  0  0  0  0  0  0  0  0
    0.1721    1.9380    0.0000 C   0  0  0  0  0  0  0  0  0  0  0  0
    1.3916    0.8400    0.0000 C   0  0  0  0  0  0  0  0  0  0  0  0
    2.1762    1.0949    0.0000 O   0  0  0  0  0  0  0  0  0  0  0  0
    1.1367    0.0554    0.0000 N   0  0  0  0  0  0  0  0  0  0  0  0
    1.6216   -0.6121    0.0000 C   0  0  0  0  0  0  0  0  0  0  0  0
    2.4421   -0.5258    0.0000 C   0  0  0  0  0  0  0  0  0  0  0  0
    2.9270   -1.1933    0.0000 O   0  0  0  0  0  0  0  0  0  0  0  0
    0.3117    0.0554    0.0000 C   0  0  0  0  0  0  0  0  0  0  0  0
   -0.1733   -0.6121    0.0000 O   0  0  0  0  0  0  0  0  0  0  0  0
    0.0567    0.8400    0.0000 N   0  0  0  0  0  0  0  0  0  0  0  0
   -0.7279    1.0949    0.0000 C   0  0  0  0  0  0  0  0  0  0  0  0
   -0.8994    1.9019    0.0000 C   0  0  0  0  0  0  0  0  0  0  0  0
   -1.6841    2.1568    0.0000 O   0  0  0  0  0  0  0  0  0  0  0  0
  1  2  1  0
  2  3  1  0
  2  4  1  0
  4  5  2  0
  4  6  1  0
  6  7  1  0
  7  8  1  0
  8  9  1  0
  6 10  1  0
 10 11  2  0
 10 12  1  0
  2 12  1  0
 12 13  1  0
 13 14  1  0
 14 15  1  0
M  END
>  <name>  (170) 
1,3-bis(2-hydroxyethyl)-5,5-dimethylimidazolidine-2,4-dione

>  <Outcome>  (170) 
0

>  <SMILES>  (170) 
CC1(C)C(=O)N(CCO)C(=O)N1CCO

$$$$

     RDKit          2D

  7  6  0  0  0  0  0  0  0  0999 V2000
    0.0000    0.0000    0.0000 C   0  0  0  0  0  0  0  0  0  0  0  0
    1.2990    0.7500    0.0000 C   0  0  0  0  0  0  0  0  0  0  0  0
    2.5981   -0.0000    0.0000 C   0  0  0  0  0  0  0  0  0  0  0  0
    3.8971    0.7500    0.0000 O   0  0  0  0  0  0  0  0  0  0  0  0
    5.1962   -0.0000    0.0000 C   0  0  0  0  0  0  0  0  0  0  0  0
    6.4952    0.7500    0.0000 O   0  0  0  0  0  0  0  0  0  0  0  0
    5.1962   -1.5000    0.0000 Cl  0  0  0  0  0  0  0  0  0  0  0  0
  1  2  2  0
  2  3  1  0
  3  4  1  0
  4  5  1  0
  5  6  2  0
  5  7  1  0
M  END
>  <name>  (171) 
prop-2-enyl carbonochloridate

>  <Outcome>  (171) 
2

>  <SMILES>  (171) 
C=CCOC(=O)Cl

$$$$

     RDKit          2D

 13 12  0  0  0  0  0  0  0  0999 V2000
    1.5000    0.0000    0.0000 C   0  0  0  0  0  0  0  0  0  0  0  0
    0.7500   -1.2990    0.0000 C   0  0  0  0  0  0  0  0  0  0  0  0
   -0.7500   -1.2990    0.0000 C   0  0  0  0  0  0  0  0  0  0  0  0
   -1.5000    0.0000    0.0000 C   0  0  0  0  0  0  0  0  0  0  0  0
   -0.7500    1.2990    0.0000 C   0  0  0  0  0  0  0  0  0  0  0  0
    0.7500    1.2990    0.0000 C   0  0  0  0  0  0  0  0  0  0  0  0
    1.5000    2.5981    0.0000 Cl  0  0  0  0  0  0  0  0  0  0  0  0
   -1.5000    2.5981    0.0000 Cl  0  0  0  0  0  0  0  0  0  0  0  0
   -3.0000    0.0000    0.0000 Cl  0  0  0  0  0  0  0  0  0  0  0  0
   -1.5000   -2.5981    0.0000 Cl  0  0  0  0  0  0  0  0  0  0  0  0
    1.5000   -2.5981    0.0000 Cl  0  0  0  0  0  0  0  0  0  0  0  0
    3.0000    0.0000    0.0000 O   0  0  0  0  0  1  0  0  0  0  0  0
    0.0000    3.5981    0.0000 K   0  0  0  0  0 15  0  0  0  0  0  0
  1  2  2  0
  2  3  1  0
  3  4  2  0
  4  5  1  0
  5  6  2  0
  6  7  1  0
  5  8  1  0
  4  9  1  0
  3 10  1  0
  2 11  1  0
  1 12  1  0
  6  1  1  0
M  CHG  2  12  -1  13   1
M  END
>  <name>  (172) 
potassium;2,3,4,5,6-pentachlorophenolate

>  <Outcome>  (172) 
2

>  <SMILES>  (172) 
[K+].[O-]c1c(Cl)c(Cl)c(Cl)c(Cl)c1Cl

$$$$

     RDKit          2D

 11 11  0  0  0  0  0  0  0  0999 V2000
    0.7145    2.0625    0.0000 C   0  0  0  0  0  0  0  0  0  0  0  0
    0.7145    1.2375    0.0000 C   0  0  0  0  0  0  0  0  0  0  0  0
    1.4289    0.8250    0.0000 C   0  0  0  0  0  0  0  0  0  0  0  0
    1.4289   -0.0000    0.0000 C   0  0  0  0  0  0  0  0  0  0  0  0
    0.7145   -0.4125    0.0000 C   0  0  0  0  0  0  0  0  0  0  0  0
    0.7145   -1.2375    0.0000 N   0  0  0  0  0  0  0  0  0  0  0  0
    1.4289   -1.6500    0.0000 C   0  0  0  0  0  0  0  0  0  0  0  0
    2.1434   -2.0625    0.0000 O   0  0  0  0  0  0  0  0  0  0  0  0
   -0.0000   -0.0000    0.0000 C   0  0  0  0  0  0  0  0  0  0  0  0
   -0.0000    0.8250    0.0000 C   0  0  0  0  0  0  0  0  0  0  0  0
   -0.7145    1.2375    0.0000 Cl  0  0  0  0  0  0  0  0  0  0  0  0
  1  2  1  0
  2  3  2  0
  3  4  1  0
  4  5  2  0
  5  6  1  0
  6  7  2  0
  7  8  2  0
  5  9  1  0
  9 10  2  0
  2 10  1  0
 10 11  1  0
M  END
>  <name>  (173) 
2-chloro-4-isocyanato-1-methylbenzene

>  <Outcome>  (173) 
1

>  <SMILES>  (173) 
Cc1ccc(N=C=O)cc1Cl

$$$$

     RDKit          2D

 56 61  0  0  0  0  0  0  0  0999 V2000
   -6.4328   -5.3722    0.0000 N   0  0  0  0  0  0  0  0  0  0  0  0
   -5.7184   -4.9597    0.0000 C   0  0  0  0  0  0  0  0  0  0  0  0
   -5.7184   -4.1347    0.0000 C   0  0  0  0  0  0  0  0  0  0  0  0
   -5.0039   -3.7222    0.0000 C   0  0  0  0  0  0  0  0  0  0  0  0
   -4.2894   -4.1347    0.0000 C   0  0  0  0  0  0  0  0  0  0  0  0
   -3.5750   -3.7222    0.0000 N   0  0  0  0  0  0  0  0  0  0  0  0
   -3.5750   -2.8972    0.0000 N   0  0  0  0  0  0  0  0  0  0  0  0
   -2.8605   -2.4847    0.0000 C   0  0  0  0  0  0  0  0  0  0  0  0
   -2.8605   -1.6597    0.0000 C   0  0  0  0  0  0  0  0  0  0  0  0
   -2.1460   -1.2472    0.0000 C   0  0  0  0  0  0  0  0  0  0  0  0
   -1.4315   -1.6597    0.0000 C   0  0  0  0  0  0  0  0  0  0  0  0
   -0.7171   -1.2472    0.0000 N   0  0  0  0  0  0  0  0  0  0  0  0
   -0.0026   -1.6597    0.0000 N   0  0  0  0  0  0  0  0  0  0  0  0
    0.7119   -1.2472    0.0000 C   0  0  0  0  0  0  0  0  0  0  0  0
    0.7119   -0.4222    0.0000 C   0  0  0  0  0  0  0  0  0  0  0  0
   -0.0026   -0.0097    0.0000 S   0  0  0  0  0  0  0  0  0  0  0  0
   -0.7171    0.4028    0.0000 O   0  0  0  0  0  0  0  0  0  0  0  0
    0.4099    0.7047    0.0000 O   0  0  0  0  0  0  0  0  0  0  0  0
   -0.4151   -0.7242    0.0000 O   0  0  0  0  0  0  0  0  0  0  0  0
    1.4263   -0.0097    0.0000 C   0  0  0  0  0  0  0  0  0  0  0  0
    2.1408   -0.4222    0.0000 C   0  0  0  0  0  0  0  0  0  0  0  0
    2.8553   -0.0097    0.0000 C   0  0  0  0  0  0  0  0  0  0  0  0
    3.5697   -0.4222    0.0000 C   0  0  0  0  0  0  0  0  0  0  0  0
    4.2842   -0.0097    0.0000 S   0  0  0  0  0  0  0  0  0  0  0  0
    4.9987    0.4028    0.0000 O   0  0  0  0  0  0  0  0  0  0  0  0
    4.6967   -0.7242    0.0000 O   0  0  0  0  0  0  0  0  0  0  0  0
    3.8717    0.7047    0.0000 O   0  0  0  0  0  0  0  0  0  0  0  0
    3.5697   -1.2472    0.0000 C   0  0  0  0  0  0  0  0  0  0  0  0
    4.2842   -1.6597    0.0000 N   0  0  0  0  0  0  0  0  0  0  0  0
    4.9987   -1.2472    0.0000 N   0  0  0  0  0  0  0  0  0  0  0  0
    5.7132   -1.6597    0.0000 C   0  0  0  0  0  0  0  0  0  0  0  0
    6.4276   -1.2472    0.0000 C   0  0  0  0  0  0  0  0  0  0  0  0
    7.1421   -1.6597    0.0000 C   0  0  0  0  0  0  0  0  0  0  0  0
    7.1421   -2.4847    0.0000 C   0  0  0  0  0  0  0  0  0  0  0  0
    7.8566   -2.8972    0.0000 N   0  0  0  0  0  0  0  0  0  0  0  0
    8.5710   -2.4847    0.0000 N   0  0  0  0  0  0  0  0  0  0  0  0
    9.2855   -2.8972    0.0000 C   0  0  0  0  0  0  0  0  0  0  0  0
   10.0000   -2.4847    0.0000 C   0  0  0  0  0  0  0  0  0  0  0  0
   10.7145   -2.8972    0.0000 C   0  0  0  0  0  0  0  0  0  0  0  0
   10.7145   -3.7222    0.0000 C   0  0  0  0  0  0  0  0  0  0  0  0
   11.4289   -4.1347    0.0000 N   0  0  0  0  0  0  0  0  0  0  0  0
   10.0000   -4.1347    0.0000 C   0  0  0  0  0  0  0  0  0  0  0  0
    9.2855   -3.7222    0.0000 C   0  0  0  0  0  0  0  0  0  0  0  0
    8.5710   -4.1347    0.0000 N   0  0  0  0  0  0  0  0  0  0  0  0
    6.4276   -2.8972    0.0000 C   0  0  0  0  0  0  0  0  0  0  0  0
    5.7132   -2.4847    0.0000 C   0  0  0  0  0  0  0  0  0  0  0  0
    2.8553   -1.6597    0.0000 C   0  0  0  0  0  0  0  0  0  0  0  0
    2.8553   -2.4847    0.0000 N   0  0  0  0  0  0  0  0  0  0  0  0
    2.1408   -1.2472    0.0000 C   0  0  0  0  0  0  0  0  0  0  0  0
    1.4263   -1.6597    0.0000 C   0  0  0  0  0  0  0  0  0  0  0  0
    1.4263   -2.4847    0.0000 O   0  0  0  0  0  0  0  0  0  0  0  0
   -1.4315   -2.4847    0.0000 C   0  0  0  0  0  0  0  0  0  0  0  0
   -2.1460   -2.8972    0.0000 C   0  0  0  0  0  0  0  0  0  0  0  0
   -4.2894   -4.9597    0.0000 C   0  0  0  0  0  0  0  0  0  0  0  0
   -3.5750   -5.3722    0.0000 N   0  0  0  0  0  0  0  0  0  0  0  0
   -5.0039   -5.3722    0.0000 C   0  0  0  0  0  0  0  0  0  0  0  0
  1  2  1  0
  2  3  2  0
  3  4  1  0
  4  5  2  0
  6  5  1  0
  6  7  2  3
  7  8  1  0
  8  9  2  0
  9 10  1  0
 10 11  2  0
 12 11  1  0
 12 13  2  3
 13 14  1  0
 14 15  2  0
 15 16  1  0
 16 17  2  0
 16 18  2  0
 16 19  1  0
 15 20  1  0
 20 21  2  0
 21 22  1  0
 22 23  2  0
 23 24  1  0
 24 25  2  0
 24 26  2  0
 24 27  1  0
 23 28  1  0
 29 28  1  0
 29 30  2  3
 30 31  1  0
 31 32  2  0
 32 33  1  0
 33 34  2  0
 35 34  1  0
 35 36  2  3
 36 37  1  0
 37 38  2  0
 38 39  1  0
 39 40  2  0
 40 41  1  0
 40 42  1  0
 42 43  2  0
 37 43  1  0
 43 44  1  0
 34 45  1  0
 45 46  2  0
 31 46  1  0
 28 47  2  0
 47 48  1  0
 47 49  1  0
 21 49  1  0
 49 50  2  0
 14 50  1  0
 50 51  1  0
 11 52  1  0
 52 53  2  0
  8 53  1  0
  5 54  1  0
 54 55  1  0
 54 56  2  0
  2 56  1  0
M  END
>  <name>  (174) 
disodium 4-amino-3,6-bis[(E)-2-{4-[(E)-2-(2,4-diaminophenyl)diazen-1-yl]phenyl}diazen-1-yl]-5-hydroxynaphthalene-2,7-disulfonate

>  <Outcome>  (174) 
0

>  <SMILES>  (174) 
Nc1ccc(N=Nc2ccc(N=Nc3c(S(=O)(=O)O)cc4cc(S(=O)(=O)O)c(N=Nc5ccc(N=Nc6ccc(N)cc6N)cc5)c(O)c4c3N)cc2)c(N)c1

$$$$

     RDKit          2D

 21 19  0  0  0  0  0  0  0  0999 V2000
    0.0000    0.0000    0.0000 C   0  0  0  0  0  0  0  0  0  0  0  0
    1.2990    0.7500    0.0000 C   0  0  0  0  0  0  0  0  0  0  0  0
    2.5981   -0.0000    0.0000 C   0  0  0  0  0  0  0  0  0  0  0  0
    3.8971    0.7500    0.0000 C   0  0  0  0  0  0  0  0  0  0  0  0
    5.1962   -0.0000    0.0000 C   0  0  0  0  0  0  0  0  0  0  0  0
    6.4952    0.7500    0.0000 C   0  0  0  0  0  0  0  0  0  0  0  0
    7.7942   -0.0000    0.0000 C   0  0  0  0  0  0  0  0  0  0  0  0
    9.0933    0.7500    0.0000 C   0  0  0  0  0  0  0  0  0  0  0  0
   10.3923   -0.0000    0.0000 C   0  0  0  0  0  0  0  0  0  0  0  0
   11.6913    0.7500    0.0000 C   0  0  0  0  0  0  0  0  0  0  0  0
   12.9904   -0.0000    0.0000 C   0  0  0  0  0  0  0  0  0  0  0  0
   14.2894    0.7500    0.0000 C   0  0  0  0  0  0  0  0  0  0  0  0
   15.5885   -0.0000    0.0000 C   0  0  0  0  0  0  0  0  0  0  0  0
   16.8875    0.7500    0.0000 C   0  0  0  0  0  0  0  0  0  0  0  0
   18.1865   -0.0000    0.0000 C   0  0  0  0  0  0  0  0  0  0  0  0
   19.4856    0.7500    0.0000 C   0  0  0  0  0  0  0  0  0  0  0  0
   20.7846   -0.0000    0.0000 C   0  0  0  0  0  0  0  0  0  0  0  0
   22.0836    0.7500    0.0000 C   0  0  0  0  0  0  0  0  0  0  0  0
   22.0836    2.2500    0.0000 O   0  0  0  0  0  0  0  0  0  0  0  0
   23.3827   -0.0000    0.0000 O   0  0  0  0  0  1  0  0  0  0  0  0
    0.0000    3.2500    0.0000 K   0  0  0  0  0 15  0  0  0  0  0  0
  1  2  1  0
  2  3  1  0
  3  4  1  0
  4  5  1  0
  5  6  1  0
  6  7  1  0
  7  8  1  0
  8  9  1  0
  9 10  2  3
 10 11  1  0
 11 12  1  0
 12 13  1  0
 13 14  1  0
 14 15  1  0
 15 16  1  0
 16 17  1  0
 17 18  1  0
 18 19  2  0
 18 20  1  0
M  CHG  2  20  -1  21   1
M  END
>  <name>  (175) 
potassium;(Z)-octadec-9-enoate

>  <Outcome>  (175) 
2

>  <SMILES>  (175) 
CCCCCCCCC=CCCCCCCCC(=O)[O-].[K+]

$$$$

     RDKit          2D

  7  6  0  0  0  0  0  0  0  0999 V2000
    1.7605    1.8414    0.0000 Cl  0  0  0  0  0  0  0  0  0  0  0  0
    2.4750    1.4289    0.0000 C   0  0  0  0  0  0  0  0  0  0  0  0
    3.1895    1.8414    0.0000 C   0  0  0  0  0  0  0  0  0  0  0  0
    3.9039    1.4289    0.0000 O   0  0  0  0  0  0  0  0  0  0  0  0
    4.6184    1.8414    0.0000 C   0  0  0  0  0  0  0  0  0  0  0  0
    5.3329    1.4289    0.0000 C   0  0  0  0  0  0  0  0  0  0  0  0
    6.0474    1.8414    0.0000 Cl  0  0  0  0  0  0  0  0  0  0  0  0
  1  2  1  0
  2  3  1  0
  3  4  1  0
  4  5  1  0
  5  6  1  0
  6  7  1  0
M  END
>  <name>  (176) 
1-chloro-2-(2-chloroethoxy)ethane

>  <Outcome>  (176) 
1

>  <SMILES>  (176) 
ClCCOCCCl

$$$$

     RDKit          2D

 24 25  0  0  0  0  0  0  0  0999 V2000
   -3.5968   -6.9743    0.0000 C   0  0  0  0  0  0  0  0  0  0  0  0
   -2.8823   -7.3868    0.0000 C   0  0  0  0  0  0  0  0  0  0  0  0
   -2.1678   -6.9743    0.0000 C   0  0  0  0  0  0  0  0  0  0  0  0
   -1.4534   -7.3868    0.0000 C   0  0  0  0  0  0  0  0  0  0  0  0
   -0.7389   -6.9743    0.0000 O   0  0  0  0  0  0  0  0  0  0  0  0
   -0.0244   -7.3868    0.0000 C   0  0  0  0  0  0  0  0  0  0  0  0
    0.6900   -6.9743    0.0000 C   0  0  0  0  0  0  0  0  0  0  0  0
    1.4045   -7.3868    0.0000 O   0  0  0  0  0  0  0  0  0  0  0  0
    2.1190   -6.9743    0.0000 C   0  0  0  0  0  0  0  0  0  0  0  0
    2.8335   -7.3868    0.0000 C   0  0  0  0  0  0  0  0  0  0  0  0
    3.5479   -6.9743    0.0000 O   0  0  0  0  0  0  0  0  0  0  0  0
    4.2624   -7.3868    0.0000 C   0  0  0  0  0  0  0  0  0  0  0  0
    4.9769   -6.9743    0.0000 C   0  0  0  0  0  0  0  0  0  0  0  0
    4.9769   -6.1493    0.0000 C   0  0  0  0  0  0  0  0  0  0  0  0
    5.6913   -5.7368    0.0000 C   0  0  0  0  0  0  0  0  0  0  0  0
    6.4058   -6.1493    0.0000 C   0  0  0  0  0  0  0  0  0  0  0  0
    6.4058   -6.9743    0.0000 C   0  0  0  0  0  0  0  0  0  0  0  0
    5.6913   -7.3868    0.0000 C   0  0  0  0  0  0  0  0  0  0  0  0
    5.6913   -8.2118    0.0000 C   0  0  0  0  0  0  0  0  0  0  0  0
    6.4058   -8.6243    0.0000 C   0  0  0  0  0  0  0  0  0  0  0  0
    7.1203   -8.2118    0.0000 C   0  0  0  0  0  0  0  0  0  0  0  0
    7.0189   -5.5973    0.0000 O   0  0  0  0  0  0  0  0  0  0  0  0
    6.6834   -4.8436    0.0000 C   0  0  0  0  0  0  0  0  0  0  0  0
    5.8629   -4.9299    0.0000 O   0  0  0  0  0  0  0  0  0  0  0  0
  1  2  1  0
  2  3  1  0
  3  4  1  0
  4  5  1  0
  5  6  1  0
  6  7  1  0
  7  8  1  0
  8  9  1  0
  9 10  1  0
 10 11  1  0
 11 12  1  0
 12 13  1  0
 13 14  2  0
 14 15  1  0
 15 16  2  0
 16 17  1  0
 17 18  2  0
 13 18  1  0
 18 19  1  0
 19 20  1  0
 20 21  1  0
 16 22  1  0
 22 23  1  0
 23 24  1  0
 15 24  1  0
M  END
>  <name>  (177) 
5-{[2-(2-butoxyethoxy)ethoxy]methyl}-6-propyl-2H-1,3-benzodioxole

>  <Outcome>  (177) 
0

>  <SMILES>  (177) 
CCCCOCCOCCOCc1cc2c(cc1CCC)OCO2

$$$$

     RDKit          2D

  9  9  0  0  0  0  0  0  0  0999 V2000
    0.7145    2.0625    0.0000 N   0  0  0  0  0  0  0  0  0  0  0  0
    0.7145    1.2375    0.0000 C   0  0  0  0  0  0  0  0  0  0  0  0
    1.4289    0.8250    0.0000 N   0  0  0  0  0  0  0  0  0  0  0  0
    1.4289    0.0000    0.0000 C   0  0  0  0  0  0  0  0  0  0  0  0
    2.1434   -0.4125    0.0000 N   0  0  0  0  0  0  0  0  0  0  0  0
    0.7145   -0.4125    0.0000 N   0  0  0  0  0  0  0  0  0  0  0  0
   -0.0000    0.0000    0.0000 C   0  0  0  0  0  0  0  0  0  0  0  0
   -0.7145   -0.4125    0.0000 N   0  0  0  0  0  0  0  0  0  0  0  0
   -0.0000    0.8250    0.0000 N   0  0  0  0  0  0  0  0  0  0  0  0
  1  2  1  0
  2  3  2  0
  3  4  1  0
  4  5  1  0
  4  6  2  0
  6  7  1  0
  7  8  1  0
  7  9  2  0
  2  9  1  0
M  END
>  <name>  (178) 
1,3,5-triazine-2,4,6-triamine

>  <Outcome>  (178) 
0

>  <SMILES>  (178) 
Nc1nc(N)nc(N)n1

$$$$

     RDKit          2D

  6  6  0  0  0  0  0  0  0  0999 V2000
    1.5000    0.0000    0.0000 C   0  0  0  0  0  0  0  0  0  0  0  0
    0.7500   -1.2990    0.0000 C   0  0  0  0  0  0  0  0  0  0  0  0
   -0.7500   -1.2990    0.0000 N   0  0  0  0  0  0  0  0  0  0  0  0
   -1.5000    0.0000    0.0000 C   0  0  0  0  0  0  0  0  0  0  0  0
   -0.7500    1.2990    0.0000 C   0  0  0  0  0  0  0  0  0  0  0  0
    0.7500    1.2990    0.0000 N   0  0  0  0  0  0  0  0  0  0  0  0
  1  2  1  0
  2  3  1  0
  3  4  1  0
  4  5  1  0
  5  6  1  0
  6  1  1  0
M  END
>  <name>  (179) 
piperazine

>  <Outcome>  (179) 
2

>  <SMILES>  (179) 
C1CNCCN1

$$$$

     RDKit          2D

 21 19  0  0  0  0  0  0  0  0999 V2000
    0.0000    0.0000    0.0000 C   0  0  0  0  0  0  0  0  0  0  0  0
    1.2990    0.7500    0.0000 C   0  0  0  0  0  0  0  0  0  0  0  0
    2.5981   -0.0000    0.0000 C   0  0  0  0  0  0  0  0  0  0  0  0
    3.8971    0.7500    0.0000 C   0  0  0  0  0  0  0  0  0  0  0  0
    5.1962   -0.0000    0.0000 C   0  0  0  0  0  0  0  0  0  0  0  0
    6.4952    0.7500    0.0000 C   0  0  0  0  0  0  0  0  0  0  0  0
    7.7942   -0.0000    0.0000 C   0  0  0  0  0  0  0  0  0  0  0  0
    9.0933    0.7500    0.0000 C   0  0  0  0  0  0  0  0  0  0  0  0
   10.3923   -0.0000    0.0000 C   0  0  0  0  0  0  0  0  0  0  0  0
   11.6913    0.7500    0.0000 C   0  0  0  0  0  0  0  0  0  0  0  0
   12.9904   -0.0000    0.0000 C   0  0  0  0  0  0  0  0  0  0  0  0
   14.2894    0.7500    0.0000 C   0  0  0  0  0  0  0  0  0  0  0  0
   15.5885   -0.0000    0.0000 C   0  0  0  0  0  0  0  0  0  0  0  0
   16.8875    0.7500    0.0000 C   0  0  0  0  0  0  0  0  0  0  0  0
   18.1865   -0.0000    0.0000 C   0  0  0  0  0  0  0  0  0  0  0  0
   19.4856    0.7500    0.0000 C   0  0  0  0  0  0  0  0  0  0  0  0
   20.7846   -0.0000    0.0000 C   0  0  0  0  0  0  0  0  0  0  0  0
   22.0836    0.7500    0.0000 C   0  0  0  0  0  0  0  0  0  0  0  0
   22.0836    2.2500    0.0000 O   0  0  0  0  0  0  0  0  0  0  0  0
   23.3827   -0.0000    0.0000 O   0  0  0  0  0  1  0  0  0  0  0  0
    0.0000    3.2500    0.0000 Na  0  0  0  0  0 15  0  0  0  0  0  0
  1  2  1  0
  2  3  1  0
  3  4  1  0
  4  5  1  0
  5  6  1  0
  6  7  1  0
  7  8  1  0
  8  9  1  0
  9 10  2  3
 10 11  1  0
 11 12  1  0
 12 13  1  0
 13 14  1  0
 14 15  1  0
 15 16  1  0
 16 17  1  0
 17 18  1  0
 18 19  2  0
 18 20  1  0
M  CHG  2  20  -1  21   1
M  END
>  <name>  (180) 
sodium;(Z)-octadec-9-enoate

>  <Outcome>  (180) 
2

>  <SMILES>  (180) 
CCCCCCCCC=CCCCCCCCC(=O)[O-].[Na+]

$$$$

     RDKit          2D

  3  2  0  0  0  0  0  0  0  0999 V2000
    0.0000    0.0000    0.0000 Cl  0  0  0  0  0  0  0  0  0  0  0  0
    1.2990    0.7500    0.0000 Pb  0  0  0  0  0  2  0  0  0  0  0  0
    2.5981   -0.0000    0.0000 Cl  0  0  0  0  0  0  0  0  0  0  0  0
  1  2  1  0
  2  3  1  0
M  RAD  1   2   3
M  END
>  <name>  (181) 
dichlorolead

>  <Outcome>  (181) 
2

>  <SMILES>  (181) 
Cl[Pb]Cl

$$$$

     RDKit          2D

  1  0  0  0  0  0  0  0  0  0999 V2000
    0.0000    0.0000    0.0000 I   0  0  0  0  0  0  0  0  0  0  0  0
M  END
>  <name>  (182) 
iodane

>  <Outcome>  (182) 
2

>  <SMILES>  (182) 
I

$$$$

     RDKit          2D

  8  7  0  0  0  0  0  0  0  0999 V2000
    0.0000    0.0000    0.0000 C   0  0  0  0  0  0  0  0  0  0  0  0
    1.2990    0.7500    0.0000 C   0  0  0  0  0  0  0  0  0  0  0  0
    2.5981   -0.0000    0.0000 C   0  0  0  0  0  0  0  0  0  0  0  0
    3.8971    0.7500    0.0000 C   0  0  0  0  0  0  0  0  0  0  0  0
    5.1962   -0.0000    0.0000 C   0  0  0  0  0  0  0  0  0  0  0  0
    5.1962   -1.5000    0.0000 O   0  0  0  0  0  0  0  0  0  0  0  0
    6.4952    0.7500    0.0000 C   0  0  0  0  0  0  0  0  0  0  0  0
    7.7942   -0.0000    0.0000 C   0  0  0  0  0  0  0  0  0  0  0  0
  1  2  1  0
  2  3  1  0
  3  4  1  0
  4  5  1  0
  5  6  2  0
  5  7  1  0
  7  8  1  0
M  END
>  <name>  (183) 
heptan-3-one

>  <Outcome>  (183) 
2

>  <SMILES>  (183) 
CCCCC(=O)CC

$$$$

     RDKit          2D

 13 12  0  0  0  0  0  0  0  0999 V2000
    0.0000    0.0000    0.0000 C   0  0  0  0  0  0  0  0  0  0  0  0
    1.2990    0.7500    0.0000 C   0  0  0  0  0  0  0  0  0  0  0  0
    2.5981   -0.0000    0.0000 C   0  0  0  0  0  0  0  0  0  0  0  0
    1.2990    2.2500    0.0000 C   0  0  0  0  0  0  0  0  0  0  0  0
   -0.0000    3.0000    0.0000 O   0  0  0  0  0  0  0  0  0  0  0  0
    2.5981    3.0000    0.0000 O   0  0  0  0  0  0  0  0  0  0  0  0
    2.5981    4.5000    0.0000 C   0  0  0  0  0  0  0  0  0  0  0  0
    3.8971    5.2500    0.0000 C   0  0  0  0  0  0  0  0  0  0  0  0
    3.8971    6.7500    0.0000 C   0  0  0  0  0  0  0  0  0  0  0  0
    5.1962    7.5000    0.0000 C   0  0  0  0  0  0  0  0  0  0  0  0
    5.1962    9.0000    0.0000 C   0  0  0  0  0  0  0  0  0  0  0  0
    6.4952    9.7500    0.0000 C   0  0  0  0  0  0  0  0  0  0  0  0
    6.4952   11.2500    0.0000 Cl  0  0  0  0  0  0  0  0  0  0  0  0
  1  2  1  0
  2  3  2  0
  2  4  1  0
  4  5  2  0
  4  6  1  0
  6  7  1  0
  7  8  1  0
  8  9  1  0
  9 10  1  0
 10 11  1  0
 11 12  1  0
 12 13  1  0
M  END
>  <name>  (184) 
6-chlorohexyl 2-methylprop-2-enoate

>  <Outcome>  (184) 
2

>  <SMILES>  (184) 
C=C(C)C(=O)OCCCCCCCl

$$$$

     RDKit          2D

 21 24  0  0  0  0  0  0  0  0999 V2000
    0.8165   -1.1438    0.0000 O   0  0  0  0  0  0  0  0  0  0  0  0
    0.8165   -0.3188    0.0000 C   0  0  0  0  0  0  0  0  0  0  0  0
    0.1021    0.0937    0.0000 N   0  0  0  0  0  0  0  0  0  0  0  0
   -0.6124   -0.3188    0.0000 C   0  0  0  0  0  0  0  0  0  0  0  0
   -0.6124   -1.1438    0.0000 C   0  0  0  0  0  0  0  0  0  0  0  0
   -0.1999   -1.8583    0.0000 C   0  0  0  0  0  0  0  0  0  0  0  0
   -1.0249   -1.8583    0.0000 O   0  0  0  0  0  0  0  0  0  0  0  0
    0.1021    0.9187    0.0000 C   0  0  0  0  0  0  0  0  0  0  0  0
   -0.6124    1.3312    0.0000 O   0  0  0  0  0  0  0  0  0  0  0  0
    0.8165    1.3312    0.0000 N   0  0  0  0  0  0  0  0  0  0  0  0
    0.8165    2.1562    0.0000 C   0  0  0  0  0  0  0  0  0  0  0  0
    1.5310    2.5687    0.0000 C   0  0  0  0  0  0  0  0  0  0  0  0
    1.9435    3.2831    0.0000 C   0  0  0  0  0  0  0  0  0  0  0  0
    2.3560    2.5687    0.0000 O   0  0  0  0  0  0  0  0  0  0  0  0
    1.5310    0.9187    0.0000 C   0  0  0  0  0  0  0  0  0  0  0  0
    2.2455    1.3312    0.0000 O   0  0  0  0  0  0  0  0  0  0  0  0
    1.5310    0.0937    0.0000 N   0  0  0  0  0  0  0  0  0  0  0  0
    2.2455   -0.3188    0.0000 C   0  0  0  0  0  0  0  0  0  0  0  0
    2.2455   -1.1438    0.0000 C   0  0  0  0  0  0  0  0  0  0  0  0
    2.6580   -1.8583    0.0000 C   0  0  0  0  0  0  0  0  0  0  0  0
    1.8330   -1.8583    0.0000 O   0  0  0  0  0  0  0  0  0  0  0  0
  1  2  2  0
  2  3  1  0
  3  4  1  0
  4  5  1  0
  5  6  1  0
  6  7  1  0
  5  7  1  0
  3  8  1  0
  8  9  2  0
  8 10  1  0
 10 11  1  0
 11 12  1  0
 12 13  1  0
 13 14  1  0
 12 14  1  0
 10 15  1  0
 15 16  2  0
 15 17  1  0
  2 17  1  0
 17 18  1  0
 18 19  1  0
 19 20  1  0
 20 21  1  0
 19 21  1  0
M  END
>  <name>  (185) 
1,3,5-tris(oxiran-2-ylmethyl)-1,3,5-triazinane-2,4,6-trione

>  <Outcome>  (185) 
1

>  <SMILES>  (185) 
O=c1n(CC2CO2)c(=O)n(CC2CO2)c(=O)n1CC1CO1

$$$$

     RDKit          2D

 10 10  0  0  0  0  0  0  0  0999 V2000
    1.5000    0.0000    0.0000 C   0  0  0  0  0  0  0  0  0  0  0  0
    0.7500   -1.2990    0.0000 C   0  0  0  0  0  0  0  0  0  0  0  0
   -0.7500   -1.2990    0.0000 C   0  0  0  0  0  0  0  0  0  0  0  0
   -1.5000    0.0000    0.0000 C   0  0  0  0  0  0  0  0  0  0  0  0
   -0.7500    1.2990    0.0000 C   0  0  0  0  0  0  0  0  0  0  0  0
    0.7500    1.2990    0.0000 C   0  0  0  0  0  0  0  0  0  0  0  0
   -3.0000    0.0000    0.0000 Si  0  0  0  0  0  4  0  0  0  0  0  0
   -4.5000    0.0000    0.0000 Cl  0  0  0  0  0  0  0  0  0  0  0  0
   -3.0000    1.5000    0.0000 Cl  0  0  0  0  0  0  0  0  0  0  0  0
   -3.0000   -1.5000    0.0000 Cl  0  0  0  0  0  0  0  0  0  0  0  0
  1  2  2  0
  2  3  1  0
  3  4  2  0
  4  5  1  0
  5  6  2  0
  4  7  1  0
  7  8  1  0
  7  9  1  0
  7 10  1  0
  6  1  1  0
M  END
>  <name>  (186) 
trichloro(phenyl)silane

>  <Outcome>  (186) 
2

>  <SMILES>  (186) 
Cl[Si](Cl)(Cl)c1ccccc1

$$$$

     RDKit          2D

  6  5  0  0  0  0  0  0  0  0999 V2000
    0.0000    0.0000    0.0000 C   0  0  0  0  0  0  0  0  0  0  0  0
    1.2990    0.7500    0.0000 O   0  0  0  0  0  0  0  0  0  0  0  0
    2.5981   -0.0000    0.0000 C   0  0  0  0  0  0  0  0  0  0  0  0
    2.5981   -1.5000    0.0000 O   0  0  0  0  0  0  0  0  0  0  0  0
    3.8971    0.7500    0.0000 O   0  0  0  0  0  0  0  0  0  0  0  0
    5.1962   -0.0000    0.0000 C   0  0  0  0  0  0  0  0  0  0  0  0
  1  2  1  0
  2  3  1  0
  3  4  2  0
  3  5  1  0
  5  6  1  0
M  END
>  <name>  (187) 
dimethyl carbonate

>  <Outcome>  (187) 
2

>  <SMILES>  (187) 
COC(=O)OC

$$$$

     RDKit          2D

 21 20  0  0  0  0  0  0  0  0999 V2000
   10.4230    6.8433    0.0000 C   0  0  0  0  0  0  0  0  0  0  0  0
   11.1375    6.4308    0.0000 C   0  0  0  0  0  0  0  0  0  0  0  0
   11.8520    6.8433    0.0000 C   0  0  0  0  0  0  0  0  0  0  0  0
   12.5664    6.4308    0.0000 C   0  0  0  0  0  0  0  0  0  0  0  0
   13.2809    6.8433    0.0000 C   0  0  0  0  0  0  0  0  0  0  0  0
   13.9954    6.4308    0.0000 C   0  0  0  0  0  0  0  0  0  0  0  0
   14.7099    6.8433    0.0000 C   0  0  0  0  0  0  0  0  0  0  0  0
   15.4243    6.4308    0.0000 C   0  0  0  0  0  0  0  0  0  0  0  0
   16.1388    6.8433    0.0000 C   0  0  0  0  0  0  0  0  0  0  0  0
   16.8533    6.4308    0.0000 C   0  0  0  0  0  0  0  0  0  0  0  0
   17.5677    6.8433    0.0000 C   0  0  0  0  0  0  0  0  0  0  0  0
   18.2822    6.4308    0.0000 C   0  0  0  0  0  0  0  0  0  0  0  0
   18.9967    6.8433    0.0000 C   0  0  0  0  0  0  0  0  0  0  0  0
   19.7112    6.4308    0.0000 C   0  0  0  0  0  0  0  0  0  0  0  0
   20.4256    6.8433    0.0000 C   0  0  0  0  0  0  0  0  0  0  0  0
   21.1401    6.4308    0.0000 C   0  0  0  0  0  0  0  0  0  0  0  0
   21.8546    6.8433    0.0000 C   0  0  0  0  0  0  0  0  0  0  0  0
   22.5690    6.4308    0.0000 C   0  0  0  0  0  0  0  0  0  0  0  0
   23.2835    6.8433    0.0000 C   0  0  0  0  0  0  0  0  0  0  0  0
   23.9980    6.4308    0.0000 C   0  0  0  0  0  0  0  0  0  0  0  0
   24.7124    6.8433    0.0000 C   0  0  0  0  0  0  0  0  0  0  0  0
  1  2  1  0
  2  3  1  0
  3  4  1  0
  4  5  1  0
  5  6  1  0
  6  7  1  0
  7  8  1  0
  8  9  1  0
  9 10  1  0
 10 11  1  0
 11 12  1  0
 12 13  1  0
 13 14  1  0
 14 15  1  0
 15 16  1  0
 16 17  1  0
 17 18  1  0
 18 19  1  0
 19 20  1  0
 20 21  1  0
M  END
>  <name>  (188) 
Distillates (petroleum), heavy hydrocracked

>  <Outcome>  (188) 
0

>  <SMILES>  (188) 
CCCCCCCCCCCCCCCCCCCCC

$$$$

     RDKit          2D

 46 45  0  0  0  0  0  0  0  0999 V2000
    0.0000    0.0000    0.0000 C   0  0  0  0  0  0  0  0  0  0  0  0
    1.2990    0.7500    0.0000 C   0  0  0  0  0  0  0  0  0  0  0  0
    2.5981   -0.0000    0.0000 C   0  0  0  0  0  0  0  0  0  0  0  0
    3.8971    0.7500    0.0000 C   0  0  0  0  0  0  0  0  0  0  0  0
    5.1962   -0.0000    0.0000 C   0  0  0  0  0  0  0  0  0  0  0  0
    6.4952    0.7500    0.0000 C   0  0  0  0  0  0  0  0  0  0  0  0
    7.7942   -0.0000    0.0000 C   0  0  0  0  0  0  0  0  0  0  0  0
    9.0933    0.7500    0.0000 C   0  0  0  0  0  0  0  0  0  0  0  0
   10.3923   -0.0000    0.0000 C   0  0  0  0  0  0  0  0  0  0  0  0
   11.6913    0.7500    0.0000 C   0  0  0  0  0  0  0  0  0  0  0  0
   12.9904   -0.0000    0.0000 C   0  0  0  0  0  0  0  0  0  0  0  0
   14.2894    0.7500    0.0000 C   0  0  0  0  0  0  0  0  0  0  0  0
   14.2894    2.2500    0.0000 O   0  0  0  0  0  0  0  0  0  0  0  0
   15.5885   -0.0000    0.0000 O   0  0  0  0  0  0  0  0  0  0  0  0
   16.8875    0.7500    0.0000 C   0  0  0  0  0  0  0  0  0  0  0  0
   18.1865   -0.0000    0.0000 C   0  0  0  0  0  0  0  0  0  0  0  0
   18.9365    1.2990    0.0000 C   0  0  0  0  0  0  0  0  0  0  0  0
   17.4365   -1.2990    0.0000 C   0  0  0  0  0  0  0  0  0  0  0  0
   19.4856   -0.7500    0.0000 C   0  0  0  0  0  0  0  0  0  0  0  0
   19.4856   -2.2500    0.0000 N   0  0  0  0  0  0  0  0  0  0  0  0
   20.7846   -3.0000    0.0000 C   0  0  0  0  0  0  0  0  0  0  0  0
   20.7846   -4.5000    0.0000 C   0  0  0  0  0  0  0  0  0  0  0  0
   22.0836   -5.2500    0.0000 C   0  0  0  0  0  0  0  0  0  0  0  0
   22.0836   -6.7500    0.0000 C   0  0  0  0  0  0  0  0  0  0  0  0
   23.3827   -7.5000    0.0000 C   0  0  0  0  0  0  0  0  0  0  0  0
   23.3827   -9.0000    0.0000 C   0  0  0  0  0  0  0  0  0  0  0  0
   24.6817   -9.7500    0.0000 N   0  0  0  0  0  0  0  0  0  0  0  0
   24.6817  -11.2500    0.0000 C   0  0  0  0  0  0  0  0  0  0  0  0
   25.9808  -12.0000    0.0000 C   0  0  0  0  0  0  0  0  0  0  0  0
   26.7308  -10.7010    0.0000 C   0  0  0  0  0  0  0  0  0  0  0  0
   25.2308  -13.2990    0.0000 C   0  0  0  0  0  0  0  0  0  0  0  0
   27.2798  -12.7500    0.0000 C   0  0  0  0  0  0  0  0  0  0  0  0
   28.5788  -12.0000    0.0000 O   0  0  0  0  0  0  0  0  0  0  0  0
   29.8779  -12.7500    0.0000 C   0  0  0  0  0  0  0  0  0  0  0  0
   29.8779  -14.2500    0.0000 O   0  0  0  0  0  0  0  0  0  0  0  0
   31.1769  -12.0000    0.0000 C   0  0  0  0  0  0  0  0  0  0  0  0
   32.4760  -12.7500    0.0000 C   0  0  0  0  0  0  0  0  0  0  0  0
   33.7750  -12.0000    0.0000 C   0  0  0  0  0  0  0  0  0  0  0  0
   35.0740  -12.7500    0.0000 C   0  0  0  0  0  0  0  0  0  0  0  0
   36.3731  -12.0000    0.0000 C   0  0  0  0  0  0  0  0  0  0  0  0
   37.6721  -12.7500    0.0000 C   0  0  0  0  0  0  0  0  0  0  0  0
   38.9711  -12.0000    0.0000 C   0  0  0  0  0  0  0  0  0  0  0  0
   40.2702  -12.7500    0.0000 C   0  0  0  0  0  0  0  0  0  0  0  0
   41.5692  -12.0000    0.0000 C   0  0  0  0  0  0  0  0  0  0  0  0
   42.8683  -12.7500    0.0000 C   0  0  0  0  0  0  0  0  0  0  0  0
   44.1673  -12.0000    0.0000 C   0  0  0  0  0  0  0  0  0  0  0  0
  1  2  1  0
  2  3  1  0
  3  4  1  0
  4  5  1  0
  5  6  1  0
  6  7  1  0
  7  8  1  0
  8  9  1  0
  9 10  1  0
 10 11  1  0
 11 12  1  0
 12 13  2  0
 12 14  1  0
 14 15  1  0
 15 16  1  0
 16 17  1  0
 16 18  1  0
 16 19  1  0
 19 20  2  3
 20 21  1  0
 21 22  1  0
 22 23  1  0
 23 24  1  0
 24 25  1  0
 25 26  1  0
 26 27  1  0
 27 28  2  3
 28 29  1  0
 29 30  1  0
 29 31  1  0
 29 32  1  0
 32 33  1  0
 33 34  1  0
 34 35  2  0
 34 36  1  0
 36 37  1  0
 37 38  1  0
 38 39  1  0
 39 40  1  0
 40 41  1  0
 41 42  1  0
 42 43  1  0
 43 44  1  0
 44 45  1  0
 45 46  1  0
M  END
>  <name>  (189) 
[3-[6-[(3-dodecanoyloxy-2,2-dimethylpropylidene)amino]hexylimino]-2,2-dimethylpropyl] dodecanoate

>  <Outcome>  (189) 
2

>  <SMILES>  (189) 
CCCCCCCCCCCC(=O)OCC(C)(C)C=NCCCCCCN=CC(C)(C)COC(=O)CCCCCCCCCCC

$$$$

     RDKit          2D

  7  6  0  0  0  0  0  0  0  0999 V2000
    1.7605    1.8390    0.0000 O   0  0  0  0  0  0  0  0  0  0  0  0
    2.4750    1.4265    0.0000 C   0  0  0  0  0  0  0  0  0  0  0  0
    3.1895    1.8390    0.0000 C   0  0  0  0  0  0  0  0  0  0  0  0
    3.9039    1.4265    0.0000 C   0  0  0  0  0  0  0  0  0  0  0  0
    4.6184    1.8390    0.0000 C   0  0  0  0  0  0  0  0  0  0  0  0
    5.3329    1.4265    0.0000 C   0  0  0  0  0  0  0  0  0  0  0  0
    6.0474    1.8390    0.0000 O   0  0  0  0  0  0  0  0  0  0  0  0
  1  2  2  0
  2  3  1  0
  3  4  1  0
  4  5  1  0
  5  6  1  0
  6  7  2  0
M  END
>  <name>  (190) 
pentanedial

>  <Outcome>  (190) 
1

>  <SMILES>  (190) 
O=CCCCC=O

$$$$

     RDKit          2D

 92 94  0  0  0  0  0  0  0  0999 V2000
    0.7500   -6.4952    0.0000 C   0  0  0  0  0  0  0  0  0  0  0  0
    1.5000   -5.1962    0.0000 C   0  0  0  0  0  0  0  0  0  0  0  0
    0.7500   -3.8971    0.0000 C   0  0  0  0  0  0  0  0  0  0  0  0
    1.5000   -2.5981    0.0000 N   0  0  0  0  0  0  0  0  0  0  0  0
    0.7500   -1.2990    0.0000 C   0  0  0  0  0  0  0  0  0  0  0  0
    1.5000    0.0000    0.0000 C   0  0  0  0  0  0  0  0  0  0  0  0
    0.7500    1.2990    0.0000 C   0  0  0  0  0  0  0  0  0  0  0  0
   -0.7500    1.2990    0.0000 C   0  0  0  0  0  0  0  0  0  0  0  0
   -1.5000    0.0000    0.0000 C   0  0  0  0  0  0  0  0  0  0  0  0
   -0.7500   -1.2990    0.0000 C   0  0  0  0  0  0  0  0  0  0  0  0
   -1.5000    2.5981    0.0000 N   0  0  0  0  0  0  0  0  0  0  0  0
   -0.7500    3.8971    0.0000 C   0  0  0  0  0  0  0  0  0  0  0  0
    0.7500    3.8971    0.0000 C   0  0  0  0  0  0  0  0  0  0  0  0
    1.5000    2.5981    0.0000 O   0  0  0  0  0  0  0  0  0  0  0  0
    1.5000    5.1962    0.0000 C   0  0  0  0  0  0  0  0  0  0  0  0
    0.7500    6.4952    0.0000 C   0  0  0  0  0  0  0  0  0  0  0  0
   -0.7500    6.4952    0.0000 C   0  0  0  0  0  0  0  0  0  0  0  0
   -1.5000    5.1962    0.0000 C   0  0  0  0  0  0  0  0  0  0  0  0
   -3.0000    5.1962    0.0000 Cl  0  0  0  0  0  0  0  0  0  0  0  0
   -1.5000    7.7942    0.0000 O   0  0  0  0  0  0  0  0  0  0  0  0
   -0.7500    9.0933    0.0000 C   0  0  0  0  0  0  0  0  0  0  0  0
    0.7500    9.0933    0.0000 C   0  0  0  0  0  0  0  0  0  0  0  0
    1.5000    7.7942    0.0000 N   0  0  0  0  0  0  0  0  0  0  0  0
    1.5000   10.3923    0.0000 C   0  0  0  0  0  0  0  0  0  0  0  0
    0.7500   11.6913    0.0000 C   0  0  0  0  0  0  0  0  0  0  0  0
   -0.7500   11.6913    0.0000 C   0  0  0  0  0  0  0  0  0  0  0  0
   -1.5000   10.3923    0.0000 C   0  0  0  0  0  0  0  0  0  0  0  0
   -3.0000   10.3923    0.0000 S   0  0  0  0  0  0  0  0  0  0  0  0
   -3.0000   11.8923    0.0000 O   0  0  0  0  0  0  0  0  0  0  0  0
   -3.0000    8.8923    0.0000 O   0  0  0  0  0  0  0  0  0  0  0  0
   -4.5000   10.3923    0.0000 O   0  0  0  0  0  0  0  0  0  0  0  0
   -1.5000   12.9904    0.0000 N   0  0  0  0  0  0  0  0  0  0  0  0
   -0.7500   14.2894    0.0000 C   0  0  0  0  0  0  0  0  0  0  0  0
   -1.5000   15.5885    0.0000 C   0  0  0  0  0  0  0  0  0  0  0  0
   -0.7500   16.8875    0.0000 C   0  0  0  0  0  0  0  0  0  0  0  0
   -3.0000   12.9904    0.0000 N   0  0  0  0  0  0  0  0  0  0  0  0
   -3.7500   14.2894    0.0000 C   0  0  0  0  0  0  0  0  0  0  0  0
   -3.0000   15.5885    0.0000 N   0  0  0  0  0  0  0  0  0  0  0  0
   -3.7500   16.8875    0.0000 C   0  0  0  0  0  0  0  0  0  0  0  0
   -5.2500   16.8875    0.0000 N   0  0  0  0  0  0  0  0  0  0  0  0
   -6.0000   15.5885    0.0000 C   0  0  0  0  0  0  0  0  0  0  0  0
   -5.2500   14.2894    0.0000 N   0  0  0  0  0  0  0  0  0  0  0  0
   -7.5000   15.5885    0.0000 N   0  0  0  0  0  0  0  0  0  0  0  0
   -8.2500   16.8875    0.0000 C   0  0  0  0  0  0  0  0  0  0  0  0
   -9.7500   16.8875    0.0000 C   0  0  0  0  0  0  0  0  0  0  0  0
  -10.5000   18.1865    0.0000 C   0  0  0  0  0  0  0  0  0  0  0  0
   -9.7500   19.4856    0.0000 C   0  0  0  0  0  0  0  0  0  0  0  0
   -8.2500   19.4856    0.0000 C   0  0  0  0  0  0  0  0  0  0  0  0
   -7.5000   18.1865    0.0000 C   0  0  0  0  0  0  0  0  0  0  0  0
   -7.5000   20.7846    0.0000 S   0  0  0  0  0  0  0  0  0  0  0  0
   -8.7990   21.5346    0.0000 O   0  0  0  0  0  0  0  0  0  0  0  0
   -6.2010   20.0346    0.0000 O   0  0  0  0  0  0  0  0  0  0  0  0
   -6.7500   22.0836    0.0000 O   0  0  0  0  0  0  0  0  0  0  0  0
  -10.5000   15.5885    0.0000 S   0  0  0  0  0  0  0  0  0  0  0  0
  -11.7990   16.3385    0.0000 O   0  0  0  0  0  0  0  0  0  0  0  0
   -9.2010   14.8385    0.0000 O   0  0  0  0  0  0  0  0  0  0  0  0
  -11.2500   14.2894    0.0000 O   0  0  0  0  0  0  0  0  0  0  0  0
   -3.0000   18.1865    0.0000 F   0  0  0  0  0  0  0  0  0  0  0  0
    3.0000    5.1962    0.0000 Cl  0  0  0  0  0  0  0  0  0  0  0  0
    3.0000    0.0000    0.0000 S   0  0  0  0  0  0  0  0  0  0  0  0
    3.0000   -1.5000    0.0000 O   0  0  0  0  0  0  0  0  0  0  0  0
    3.0000    1.5000    0.0000 O   0  0  0  0  0  0  0  0  0  0  0  0
    4.5000    0.0000    0.0000 O   0  0  0  0  0  0  0  0  0  0  0  0
    3.0000   -2.5981    0.0000 N   0  0  0  0  0  0  0  0  0  0  0  0
    3.7500   -3.8971    0.0000 C   0  0  0  0  0  0  0  0  0  0  0  0
    3.0000   -5.1962    0.0000 N   0  0  0  0  0  0  0  0  0  0  0  0
    3.7500   -6.4952    0.0000 C   0  0  0  0  0  0  0  0  0  0  0  0
    5.2500   -6.4952    0.0000 N   0  0  0  0  0  0  0  0  0  0  0  0
    6.0000   -5.1962    0.0000 C   0  0  0  0  0  0  0  0  0  0  0  0
    5.2500   -3.8971    0.0000 N   0  0  0  0  0  0  0  0  0  0  0  0
    7.5000   -5.1962    0.0000 N   0  0  0  0  0  0  0  0  0  0  0  0
    8.2500   -6.4952    0.0000 C   0  0  0  0  0  0  0  0  0  0  0  0
    9.7500   -6.4952    0.0000 C   0  0  0  0  0  0  0  0  0  0  0  0
   10.5000   -7.7942    0.0000 C   0  0  0  0  0  0  0  0  0  0  0  0
    9.7500   -9.0933    0.0000 C   0  0  0  0  0  0  0  0  0  0  0  0
    8.2500   -9.0933    0.0000 C   0  0  0  0  0  0  0  0  0  0  0  0
    7.5000   -7.7942    0.0000 C   0  0  0  0  0  0  0  0  0  0  0  0
    7.5000  -10.3923    0.0000 S   0  0  0  0  0  0  0  0  0  0  0  0
    8.7990  -11.1423    0.0000 O   0  0  0  0  0  0  0  0  0  0  0  0
    6.2010   -9.6423    0.0000 O   0  0  0  0  0  0  0  0  0  0  0  0
    6.7500  -11.6913    0.0000 O   0  0  0  0  0  0  0  0  0  0  0  0
   10.5000   -5.1962    0.0000 S   0  0  0  0  0  0  0  0  0  0  0  0
   11.7990   -5.9462    0.0000 O   0  0  0  0  0  0  0  0  0  0  0  0
    9.2010   -4.4462    0.0000 O   0  0  0  0  0  0  0  0  0  0  0  0
   11.2500   -3.8971    0.0000 O   0  0  0  0  0  0  0  0  0  0  0  0
    3.0000   -7.7942    0.0000 F   0  0  0  0  0  0  0  0  0  0  0  0
   12.7990    0.0000    0.0000 Na  0  0  0  0  0 15  0  0  0  0  0  0
   13.7990    0.0000    0.0000 Na  0  0  0  0  0 15  0  0  0  0  0  0
   14.7990    0.0000    0.0000 Na  0  0  0  0  0 15  0  0  0  0  0  0
   15.7990    0.0000    0.0000 Na  0  0  0  0  0 15  0  0  0  0  0  0
   16.7990    0.0000    0.0000 Na  0  0  0  0  0 15  0  0  0  0  0  0
   17.7990    0.0000    0.0000 Na  0  0  0  0  0 15  0  0  0  0  0  0
  1  2  1  0
  2  3  1  0
  3  4  1  0
  4  5  1  0
  5  6  2  0
  6  7  1  0
  7  8  2  0
  8  9  1  0
  9 10  2  0
  8 11  1  0
 11 12  1  0
 12 13  2  0
 13 14  1  0
 13 15  1  0
 15 16  2  0
 16 17  1  0
 17 18  2  0
 18 19  1  0
 17 20  1  0
 20 21  1  0
 21 22  2  0
 22 23  1  0
 22 24  1  0
 24 25  2  0
 25 26  1  0
 26 27  2  0
 27 28  1  0
 28 29  2  0
 28 30  2  0
 28 31  1  0
 26 32  1  0
 32 33  1  0
 33 34  1  0
 34 35  1  0
 32 36  1  0
 36 37  1  0
 37 38  2  0
 38 39  1  0
 39 40  2  0
 40 41  1  0
 41 42  2  0
 41 43  1  0
 43 44  1  0
 44 45  2  0
 45 46  1  0
 46 47  2  0
 47 48  1  0
 48 49  2  0
 48 50  1  0
 50 51  2  0
 50 52  2  0
 50 53  1  0
 45 54  1  0
 54 55  2  0
 54 56  2  0
 54 57  1  0
 39 58  1  0
 15 59  1  0
  6 60  1  0
 60 61  2  0
 60 62  2  0
 60 63  1  0
  4 64  1  0
 64 65  1  0
 65 66  2  0
 66 67  1  0
 67 68  2  0
 68 69  1  0
 69 70  2  0
 69 71  1  0
 71 72  1  0
 72 73  2  0
 73 74  1  0
 74 75  2  0
 75 76  1  0
 76 77  2  0
 76 78  1  0
 78 79  2  0
 78 80  2  0
 78 81  1  0
 73 82  1  0
 82 83  2  0
 82 84  2  0
 82 85  1  0
 67 86  1  0
 10  5  1  0
 14  7  1  0
 18 12  1  0
 23 16  1  0
 27 21  1  0
 42 37  1  0
 49 44  1  0
 70 65  1  0
 77 72  1  0
M  CHG  6  87   1  88   1  89   1  90   1  91   1  92   1
M  END
>  <name>  (191) 
hexasodium;6,13-dichloro-3,10-bis[[[4-(2,5-disulfoanilino)-6-fluoro-1,3,5-triazin-2-yl]amino]-propylamino]-7,14-dihydro-[1,4]benzoxazino[2,3-b]phenoxazine-4,11-disulfonic acid

>  <Outcome>  (191) 
2

>  <SMILES>  (191) 
CCCN(Nc1nc(F)nc(Nc2cc(S(=O)(=O)O)ccc2S(=O)(=O)O)n1)c1ccc2[nH]c3c(Cl)c4oc5c(S(=O)(=O)O)c(N(CCC)Nc6nc(F)nc(Nc7cc(S(=O)(=O)O)ccc7S(=O)(=O)O)n6)ccc5[nH]c4c(Cl)c3oc2c1S(=O)(=O)O.[Na+].[Na+].[Na+].[Na+].[Na+].[Na+]

$$$$

     RDKit          2D

 14 15  0  0  0  0  0  0  0  0999 V2000
   -0.6196    9.3089    0.0000 Cl  0  0  0  0  0  0  0  0  0  0  0  0
   -0.6196    8.4839    0.0000 C   0  0  0  0  0  0  0  0  0  0  0  0
    0.0948    8.0714    0.0000 C   0  0  0  0  0  0  0  0  0  0  0  0
    0.0948    7.2464    0.0000 C   0  0  0  0  0  0  0  0  0  0  0  0
   -0.6196    6.8339    0.0000 C   0  0  0  0  0  0  0  0  0  0  0  0
   -0.6196    6.0089    0.0000 C   0  0  0  0  0  0  0  0  0  0  0  0
    0.0948    5.5964    0.0000 N   0  0  0  0  0  0  0  0  0  0  0  0
    0.0948    4.7714    0.0000 C   0  0  0  0  0  0  0  0  0  0  0  0
    0.7623    4.2865    0.0000 C   0  0  0  0  0  0  0  0  0  0  0  0
    0.5073    3.5018    0.0000 C   0  0  0  0  0  0  0  0  0  0  0  0
   -0.3177    3.5018    0.0000 C   0  0  0  0  0  0  0  0  0  0  0  0
   -0.5726    4.2865    0.0000 C   0  0  0  0  0  0  0  0  0  0  0  0
   -1.3341    7.2464    0.0000 C   0  0  0  0  0  0  0  0  0  0  0  0
   -1.3341    8.0714    0.0000 C   0  0  0  0  0  0  0  0  0  0  0  0
  1  2  1  0
  2  3  2  0
  3  4  1  0
  4  5  2  0
  5  6  1  0
  6  7  1  0
  7  8  1  0
  8  9  1  0
  9 10  1  0
 10 11  1  0
 11 12  1  0
  8 12  1  0
  5 13  1  0
 13 14  2  0
  2 14  1  0
M  END
>  <name>  (192) 
N-(4-chlorobenzyl)cyclopentanamine

>  <Outcome>  (192) 
1

>  <SMILES>  (192) 
Clc1ccc(CNC2CCCC2)cc1

$$$$

     RDKit          2D

 10 10  0  0  0  0  0  0  0  0999 V2000
    5.2500   -1.2990    0.0000 C   0  0  0  0  0  0  0  0  0  0  0  0
    3.7500   -1.2990    0.0000 C   0  0  0  0  0  0  0  0  0  0  0  0
    3.0000    0.0000    0.0000 C   0  0  0  0  0  0  0  0  0  0  0  0
    3.7500    1.2990    0.0000 O   0  0  0  0  0  0  0  0  0  0  0  0
    1.5000    0.0000    0.0000 C   0  0  0  0  0  0  0  0  0  0  0  0
    0.7500   -1.2990    0.0000 C   0  0  0  0  0  0  0  0  0  0  0  0
   -0.7500   -1.2990    0.0000 C   0  0  0  0  0  0  0  0  0  0  0  0
   -1.5000    0.0000    0.0000 C   0  0  0  0  0  0  0  0  0  0  0  0
   -0.7500    1.2990    0.0000 C   0  0  0  0  0  0  0  0  0  0  0  0
    0.7500    1.2990    0.0000 C   0  0  0  0  0  0  0  0  0  0  0  0
  1  2  1  0
  2  3  1  0
  3  4  2  0
  3  5  1  0
  5  6  2  0
  6  7  1  0
  7  8  2  0
  8  9  1  0
  9 10  2  0
 10  5  1  0
M  END
>  <name>  (193) 
1-phenylpropan-1-one

>  <Outcome>  (193) 
2

>  <SMILES>  (193) 
CCC(=O)c1ccccc1

$$$$

     RDKit          2D

 34 36  0  0  0  0  0  0  0  0999 V2000
    7.5217    2.4509    0.0000 C   0  0  0  0  0  0  0  0  0  0  0  0
    7.0195    1.7964    0.0000 C   0  0  0  0  0  0  0  0  0  0  0  0
    6.3650    2.2986    0.0000 C   0  0  0  0  0  0  0  0  0  0  0  0
    7.6740    1.2942    0.0000 C   0  0  0  0  0  0  0  0  0  0  0  0
    6.5173    1.1419    0.0000 C   0  0  0  0  0  0  0  0  0  0  0  0
    5.6993    1.2496    0.0000 C   0  0  0  0  0  0  0  0  0  0  0  0
    5.1971    0.5951    0.0000 C   0  0  0  0  0  0  0  0  0  0  0  0
    5.5128   -0.1671    0.0000 C   0  0  0  0  0  0  0  0  0  0  0  0
    6.3308   -0.2748    0.0000 C   0  0  0  0  0  0  0  0  0  0  0  0
    6.6465   -1.0370    0.0000 C   0  0  0  0  0  0  0  0  0  0  0  0
    6.9622   -1.7992    0.0000 C   0  0  0  0  0  0  0  0  0  0  0  0
    7.4087   -0.7213    0.0000 C   0  0  0  0  0  0  0  0  0  0  0  0
    5.8843   -1.3527    0.0000 C   0  0  0  0  0  0  0  0  0  0  0  0
    6.8330    0.3797    0.0000 C   0  0  0  0  0  0  0  0  0  0  0  0
    5.1971   -0.9293    0.0000 O   0  0  0  0  0  0  0  0  0  0  0  0
    4.4349   -1.2451    0.0000 P   0  0  0  0  0  0  0  0  0  0  0  0
    4.9371   -1.8996    0.0000 O   0  0  0  0  0  0  0  0  0  0  0  0
    3.9327   -1.8996    0.0000 O   0  0  0  0  0  0  0  0  0  0  0  0
    3.6727   -0.9293    0.0000 O   0  0  0  0  0  0  0  0  0  0  0  0
    3.3570   -0.1671    0.0000 C   0  0  0  0  0  0  0  0  0  0  0  0
    3.6727    0.5951    0.0000 C   0  0  0  0  0  0  0  0  0  0  0  0
    3.1705    1.2496    0.0000 C   0  0  0  0  0  0  0  0  0  0  0  0
    2.3525    1.1419    0.0000 C   0  0  0  0  0  0  0  0  0  0  0  0
    1.8503    1.7964    0.0000 C   0  0  0  0  0  0  0  0  0  0  0  0
    1.3481    2.4509    0.0000 C   0  0  0  0  0  0  0  0  0  0  0  0
    2.5048    2.2986    0.0000 C   0  0  0  0  0  0  0  0  0  0  0  0
    1.1958    1.2942    0.0000 C   0  0  0  0  0  0  0  0  0  0  0  0
    2.0368    0.3797    0.0000 C   0  0  0  0  0  0  0  0  0  0  0  0
    2.5391   -0.2748    0.0000 C   0  0  0  0  0  0  0  0  0  0  0  0
    2.2233   -1.0370    0.0000 C   0  0  0  0  0  0  0  0  0  0  0  0
    1.9076   -1.7992    0.0000 C   0  0  0  0  0  0  0  0  0  0  0  0
    2.9855   -1.3527    0.0000 C   0  0  0  0  0  0  0  0  0  0  0  0
    1.4611   -0.7213    0.0000 C   0  0  0  0  0  0  0  0  0  0  0  0
    4.4349    0.9108    0.0000 C   0  0  0  0  0  0  0  0  0  0  0  0
  1  2  1  0
  2  3  1  0
  2  4  1  0
  2  5  1  0
  5  6  2  0
  6  7  1  0
  7  8  2  0
  8  9  1  0
  9 10  1  0
 10 11  1  0
 10 12  1  0
 10 13  1  0
  9 14  2  0
  5 14  1  0
  8 15  1  0
 15 16  1  0
 16 17  2  0
 16 18  1  0
 16 19  1  0
 19 20  1  0
 20 21  2  0
 21 22  1  0
 22 23  2  0
 23 24  1  0
 24 25  1  0
 24 26  1  0
 24 27  1  0
 23 28  1  0
 28 29  2  0
 20 29  1  0
 29 30  1  0
 30 31  1  0
 30 32  1  0
 30 33  1  0
 21 34  1  0
  7 34  1  0
M  END
>  <name>  (194) 
sodium 5,7,13,15-tetra-tert-butyl-10-oxo-9,11-dioxa-10??????-phosphatricyclo[10.4.0.0??,????]hexadeca-1(12),3,5,7,13,15-hexaen-10-olate

>  <Outcome>  (194) 
1

>  <SMILES>  (194) 
CC(C)(C)c1cc2c(c(C(C)(C)C)c1)OP(=O)(O)Oc1c(cc(C(C)(C)C)cc1C(C)(C)C)C2

$$$$

     RDKit          2D

  6  4  0  0  0  0  0  0  0  0999 V2000
    0.0000    0.0000    0.0000 O   0  0  0  0  0  1  0  0  0  0  0  0
    1.2990    0.7500    0.0000 As  0  0  0  0  0  5  0  0  0  0  0  0
    0.5490    2.0490    0.0000 O   0  0  0  0  0  0  0  0  0  0  0  0
    2.5981    1.5000    0.0000 O   0  0  0  0  0  1  0  0  0  0  0  0
    2.0490   -0.5490    0.0000 O   0  0  0  0  0  1  0  0  0  0  0  0
    3.5981    0.0000    0.0000 Fe  0  0  0  0  0 15  0  0  0  0  0  0
  1  2  1  0
  2  3  2  0
  2  4  1  0
  2  5  1  0
M  CHG  4   1  -1   4  -1   5  -1   6   3
M  END
>  <name>  (195) 
iron(3+);arsorate

>  <Outcome>  (195) 
2

>  <SMILES>  (195) 
O=[As]([O-])([O-])[O-].[Fe+3]

$$$$

     RDKit          2D

 27 28  0  0  0  0  0  0  0  0999 V2000
    3.0000    0.0000    0.0000 C   0  0  0  0  0  0  0  0  0  0  0  0
    1.5000    0.0000    0.0000 C   0  0  0  0  0  0  0  0  0  0  0  0
    0.7500   -1.2990    0.0000 C   0  0  0  0  0  0  0  0  0  0  0  0
   -0.7500   -1.2990    0.0000 C   0  0  0  0  0  0  0  0  0  0  0  0
   -1.5000    0.0000    0.0000 C   0  0  0  0  0  0  0  0  0  0  0  0
   -0.7500    1.2990    0.0000 C   0  0  0  0  0  0  0  0  0  0  0  0
    0.7500    1.2990    0.0000 C   0  0  0  0  0  0  0  0  0  0  0  0
    1.5000    2.5981    0.0000 F   0  0  0  0  0  0  0  0  0  0  0  0
   -1.5000    2.5981    0.0000 F   0  0  0  0  0  0  0  0  0  0  0  0
   -3.0000    0.0000    0.0000 C   0  0  0  0  0  0  0  0  0  0  0  0
   -3.7500    1.2990    0.0000 O   0  0  0  0  0  0  0  0  0  0  0  0
   -5.2500    1.2990    0.0000 C   0  0  0  0  0  0  0  0  0  0  0  0
   -6.0000    0.0000    0.0000 O   0  0  0  0  0  0  0  0  0  0  0  0
   -6.0000    2.5981    0.0000 C   0  0  0  0  0  0  0  0  0  0  0  0
   -7.2990    3.3481    0.0000 C   0  0  0  0  0  0  0  0  0  0  0  0
   -6.0000    4.0981    0.0000 C   0  0  0  0  0  0  0  0  0  0  0  0
   -6.5130    5.5076    0.0000 C   0  0  0  0  0  0  0  0  0  0  0  0
   -4.5228    4.3585    0.0000 C   0  0  0  0  0  0  0  0  0  0  0  0
   -8.7990    3.3481    0.0000 C   0  0  0  0  0  0  0  0  0  0  0  0
   -9.5490    4.6471    0.0000 C   0  0  0  0  0  0  0  0  0  0  0  0
  -11.0490    4.6471    0.0000 C   0  0  0  0  0  0  0  0  0  0  0  0
  -12.5490    4.6471    0.0000 F   0  0  0  0  0  0  0  0  0  0  0  0
  -11.0490    6.1471    0.0000 F   0  0  0  0  0  0  0  0  0  0  0  0
  -11.0490    3.1471    0.0000 F   0  0  0  0  0  0  0  0  0  0  0  0
   -8.7990    5.9462    0.0000 Cl  0  0  0  0  0  0  0  0  0  0  0  0
   -1.5000   -2.5981    0.0000 F   0  0  0  0  0  0  0  0  0  0  0  0
    1.5000   -2.5981    0.0000 F   0  0  0  0  0  0  0  0  0  0  0  0
  1  2  1  0
  2  3  2  0
  3  4  1  0
  4  5  2  0
  5  6  1  0
  6  7  2  0
  7  8  1  0
  6  9  1  0
  5 10  1  0
 10 11  1  0
 11 12  1  0
 12 13  2  0
 12 14  1  0
 14 15  1  0
 15 16  1  0
 16 17  1  0
 16 18  1  0
 15 19  1  0
 19 20  2  3
 20 21  1  0
 21 22  1  0
 21 23  1  0
 21 24  1  0
 20 25  1  0
  4 26  1  0
  3 27  1  0
  7  2  1  0
 16 14  1  0
M  END
>  <name>  (196) 
(2,3,5,6-tetrafluoro-4-methylphenyl)methyl (1S,3S)-3-[(Z)-2-chloro-3,3,3-trifluoroprop-1-enyl]-2,2-dimethylcyclopropane-1-carboxylate

>  <Outcome>  (196) 
2

>  <SMILES>  (196) 
Cc1c(F)c(F)c(COC(=O)C2C(C=C(Cl)C(F)(F)F)C2(C)C)c(F)c1F

$$$$

     RDKit          2D

  1  0  0  0  0  0  0  0  0  0999 V2000
    0.0000    0.0000    0.0000 Fe  0  0  0  0  0 15  0  0  0  0  0  0
M  END
>  <name>  (197) 
iron

>  <Outcome>  (197) 
2

>  <SMILES>  (197) 
[Fe]

$$$$

     RDKit          2D

  9  6  0  0  0  0  0  0  0  0999 V2000
    0.0000    0.0000    0.0000 C   0  0  0  0  0  0  0  0  0  0  0  0
    1.2990    0.7500    0.0000 C   0  0  0  0  0  0  0  0  0  0  0  0
    2.5981   -0.0000    0.0000 N   0  0  0  0  0  2  0  0  0  0  0  0
   -1.2990    0.7500    0.0000 N   0  0  0  0  0  2  0  0  0  0  0  0
    0.0000    1.7500    0.0000 C   0  0  0  0  0  0  0  0  0  0  0  0
    1.2990    2.5000    0.0000 C   0  0  0  0  0  0  0  0  0  0  0  0
    2.5981    1.7500    0.0000 N   0  0  0  0  0  2  0  0  0  0  0  0
   -1.2990    2.5000    0.0000 N   0  0  0  0  0  2  0  0  0  0  0  0
    0.0000    3.5000    0.0000 Cu  0  0  0  0  0 15  0  0  0  0  0  0
  1  2  1  0
  2  3  1  0
  1  4  1  0
  5  6  1  0
  6  7  1  0
  5  8  1  0
M  CHG  5   3  -1   4  -1   7  -1   8  -1   9   2
M  END
>  <name>  (198) 
copper;2-azanidylethylazanide

>  <Outcome>  (198) 
2

>  <SMILES>  (198) 
[Cu+2].[NH-]CC[NH-].[NH-]CC[NH-]

$$$$

     RDKit          2D

  8  7  0  0  0  0  0  0  0  0999 V2000
    1.0461    1.4289    0.0000 O   0  0  0  0  0  0  0  0  0  0  0  0
    1.7605    1.8414    0.0000 C   0  0  0  0  0  0  0  0  0  0  0  0
    2.4750    1.4289    0.0000 O   0  0  0  0  0  0  0  0  0  0  0  0
    3.1895    1.8414    0.0000 C   0  0  0  0  0  0  0  0  0  0  0  0
    3.9039    1.4289    0.0000 C   0  0  0  0  0  0  0  0  0  0  0  0
    4.6184    1.8414    0.0000 O   0  0  0  0  0  0  0  0  0  0  0  0
    5.3329    1.4289    0.0000 C   0  0  0  0  0  0  0  0  0  0  0  0
    6.0474    1.8414    0.0000 O   0  0  0  0  0  0  0  0  0  0  0  0
  1  2  2  0
  2  3  1  0
  3  4  1  0
  4  5  1  0
  5  6  1  0
  6  7  1  0
  7  8  2  0
M  END
>  <name>  (199) 
2-(formyloxy)ethyl formate

>  <Outcome>  (199) 
0

>  <SMILES>  (199) 
O=COCCOC=O

$$$$

     RDKit          2D

 23 24  0  0  0  0  0  0  0  0999 V2000
    1.4069    0.7910    0.0000 N   0  0  0  0  0  0  0  0  0  0  0  0
    2.1214    0.3785    0.0000 N   0  0  0  0  0  0  0  0  0  0  0  0
    2.1214   -0.4465    0.0000 S   0  0  0  0  0  0  0  0  0  0  0  0
    1.2964   -0.4465    0.0000 O   0  0  0  0  0  0  0  0  0  0  0  0
    2.9464   -0.4465    0.0000 O   0  0  0  0  0  0  0  0  0  0  0  0
    2.1214   -1.2715    0.0000 C   0  0  0  0  0  0  0  0  0  0  0  0
    2.8358   -1.6840    0.0000 C   0  0  0  0  0  0  0  0  0  0  0  0
    2.8358   -2.5090    0.0000 C   0  0  0  0  0  0  0  0  0  0  0  0
    2.1214   -2.9215    0.0000 C   0  0  0  0  0  0  0  0  0  0  0  0
    2.1214   -3.7465    0.0000 O   0  0  0  0  0  0  0  0  0  0  0  0
    1.4069   -4.1590    0.0000 C   0  0  0  0  0  0  0  0  0  0  0  0
    1.4069   -4.9840    0.0000 C   0  0  0  0  0  0  0  0  0  0  0  0
    0.6924   -5.3965    0.0000 C   0  0  0  0  0  0  0  0  0  0  0  0
   -0.0221   -4.9840    0.0000 C   0  0  0  0  0  0  0  0  0  0  0  0
   -0.7365   -5.3965    0.0000 S   0  0  0  0  0  0  0  0  0  0  0  0
   -1.1490   -4.6820    0.0000 O   0  0  0  0  0  0  0  0  0  0  0  0
   -0.3240   -6.1110    0.0000 O   0  0  0  0  0  0  0  0  0  0  0  0
   -1.4510   -5.8090    0.0000 N   0  0  0  0  0  0  0  0  0  0  0  0
   -1.4510   -6.6340    0.0000 N   0  0  0  0  0  0  0  0  0  0  0  0
   -0.0221   -4.1590    0.0000 C   0  0  0  0  0  0  0  0  0  0  0  0
    0.6924   -3.7465    0.0000 C   0  0  0  0  0  0  0  0  0  0  0  0
    1.4069   -2.5090    0.0000 C   0  0  0  0  0  0  0  0  0  0  0  0
    1.4069   -1.6840    0.0000 C   0  0  0  0  0  0  0  0  0  0  0  0
  1  2  1  0
  2  3  1  0
  3  4  2  0
  3  5  2  0
  3  6  1  0
  6  7  2  0
  7  8  1  0
  8  9  2  0
  9 10  1  0
 10 11  1  0
 11 12  2  0
 12 13  1  0
 13 14  2  0
 14 15  1  0
 15 16  2  0
 15 17  2  0
 15 18  1  0
 18 19  1  0
 14 20  1  0
 20 21  2  0
 11 21  1  0
  9 22  1  0
 22 23  2  0
  6 23  1  0
M  END
>  <name>  (200) 
4-[4-(hydrazinesulfonyl)phenoxy]benzene-1-sulfonohydrazide

>  <Outcome>  (200) 
0

>  <SMILES>  (200) 
NNS(=O)(=O)c1ccc(Oc2ccc(S(=O)(=O)NN)cc2)cc1

$$$$

     RDKit          2D

  9  6  0  0  0  0  0  0  0  0999 V2000
    0.0000    0.0000    0.0000 O   0  0  0  0  0  1  0  0  0  0  0  0
    1.2990    0.7500    0.0000 Cl  0  0  0  0  0  0  0  0  0  0  0  0
    2.5981   -0.0000    0.0000 O   0  0  0  0  0  0  0  0  0  0  0  0
    1.2990    2.2500    0.0000 O   0  0  0  0  0  0  0  0  0  0  0  0
    0.0000    3.2500    0.0000 O   0  0  0  0  0  1  0  0  0  0  0  0
    1.2990    4.0000    0.0000 Cl  0  0  0  0  0  0  0  0  0  0  0  0
    2.5981    3.2500    0.0000 O   0  0  0  0  0  0  0  0  0  0  0  0
    1.2990    5.5000    0.0000 O   0  0  0  0  0  0  0  0  0  0  0  0
    3.5981    0.0000    0.0000 Ba  0  0  0  0  0 15  0  0  0  0  0  0
  1  2  1  0
  2  3  1  0
  2  4  1  0
  5  6  1  0
  6  7  1  0
  6  8  1  0
M  CHG  8   1  -1   2   2   3  -1   4  -1   5  -1   6   2   7  -1   8  -1
M  CHG  1   9   2
M  END
>  <name>  (201) 
barium(2+);dichlorate

>  <Outcome>  (201) 
2

>  <SMILES>  (201) 
[Ba+2].[O-][Cl+2]([O-])[O-].[O-][Cl+2]([O-])[O-]

$$$$

     RDKit          2D

  8  9  0  0  0  0  0  0  0  0999 V2000
   -0.9803   -0.4228    0.0000 C   0  0  0  0  0  0  0  0  0  0  0  0
   -0.9803    0.4022    0.0000 C   0  0  0  0  0  0  0  0  0  0  0  0
   -0.2658    0.8147    0.0000 N   0  0  0  0  0  0  0  0  0  0  0  0
    0.4486    0.4022    0.0000 C   0  0  0  0  0  0  0  0  0  0  0  0
    0.4486   -0.4228    0.0000 C   0  0  0  0  0  0  0  0  0  0  0  0
   -0.2658   -0.8353    0.0000 N   0  0  0  0  0  0  0  0  0  0  0  0
   -0.4033   -0.2853    0.0000 C   0  0  0  0  0  0  0  0  0  0  0  0
   -0.4033    0.2647    0.0000 C   0  0  0  0  0  0  0  0  0  0  0  0
  2  1  1  0
  3  2  1  0
  3  4  1  0
  4  5  1  0
  5  6  1  0
  6  7  1  0
  7  8  1  0
  1  6  1  0
  8  3  1  0
M  END
>  <name>  (202) 
1,4-Diazabicyclo[2.2.2]octane

>  <Outcome>  (202) 
0

>  <SMILES>  (202) 
C1CN2CCN1CC2

$$$$

     RDKit          2D

 14 16  0  0  0  0  0  0  0  0999 V2000
    2.6269    2.2998    0.0000 C   0  0  0  0  0  0  0  0  0  0  0  0
    1.9124    1.8873    0.0000 C   0  0  0  0  0  0  0  0  0  0  0  0
    1.9124    1.0623    0.0000 O   0  0  0  0  0  0  0  0  0  0  0  0
    1.1979    2.2998    0.0000 O   0  0  0  0  0  0  0  0  0  0  0  0
    0.4834    1.8873    0.0000 C   0  0  0  0  0  0  0  0  0  0  0  0
    0.4834    1.0623    0.0000 C   0  0  0  0  0  0  0  0  0  0  0  0
   -0.2310    0.6498    0.0000 C   0  0  0  0  0  0  0  0  0  0  0  0
   -0.4373    1.4748    0.0000 C   0  0  0  0  0  0  0  0  0  0  0  0
   -0.2310    2.2998    0.0000 C   0  0  0  0  0  0  0  0  0  0  0  0
   -0.9455    1.8873    0.0000 C   0  0  0  0  0  0  0  0  0  0  0  0
   -1.7301    2.1422    0.0000 C   0  0  0  0  0  0  0  0  0  0  0  0
   -2.2150    1.4748    0.0000 C   0  0  0  0  0  0  0  0  0  0  0  0
   -1.7301    0.8073    0.0000 C   0  0  0  0  0  0  0  0  0  0  0  0
   -0.9455    1.0623    0.0000 C   0  0  0  0  0  0  0  0  0  0  0  0
  1  2  1  0
  2  3  2  0
  2  4  1  0
  4  5  1  0
  6  5  1  0
  7  6  1  0
  7  8  1  0
  8  9  1  0
  9 10  1  0
 11 10  1  0
 12 11  1  0
 13 12  2  0
 14 13  1  0
  5  9  1  0
 14  7  1  0
 10 14  1  0
M  END
>  <name>  (203) 
3a,4,5,6,7,7a-Hexahydro-1H-4,7-methanoinden-6-yl acetate

>  <Outcome>  (203) 
0

>  <SMILES>  (203) 
CC(=O)OC1CC2CC1C1CC=CC21

$$$$

     RDKit          2D

  4  3  0  0  0  0  0  0  0  0999 V2000
    0.9818   -0.2631    0.0000 C   0  0  0  0  0  0  0  0  0  0  0  0
    0.5693    0.4514    0.0000 N   0  0  0  0  0  0  0  0  0  0  0  0
   -0.2557    0.4514    0.0000 C   0  0  0  0  0  0  0  0  0  0  0  0
   -1.0807    0.4514    0.0000 S   0  0  0  0  0  0  0  0  0  0  0  0
  1  2  1  0
  2  3  2  0
  3  4  2  0
M  END
>  <name>  (204) 
Methyl isothiocyanate

>  <Outcome>  (204) 
1

>  <SMILES>  (204) 
CN=C=S

$$$$

     RDKit          2D

 26 25  0  0  0  0  0  0  0  0999 V2000
    8.3862    5.7370    0.0000 C   0  0  0  0  0  0  0  0  0  0  0  0
    9.1007    6.1495    0.0000 C   0  0  0  0  0  0  0  0  0  0  0  0
    9.8151    5.7370    0.0000 C   0  0  0  0  0  0  0  0  0  0  0  0
   10.5296    6.1495    0.0000 C   0  0  0  0  0  0  0  0  0  0  0  0
   11.2441    5.7370    0.0000 C   0  0  0  0  0  0  0  0  0  0  0  0
   11.2441    4.9120    0.0000 C   0  0  0  0  0  0  0  0  0  0  0  0
   11.9585    4.4995    0.0000 C   0  0  0  0  0  0  0  0  0  0  0  0
   11.9585    6.1495    0.0000 C   0  0  0  0  0  0  0  0  0  0  0  0
   12.6730    5.7370    0.0000 O   0  0  0  0  0  0  0  0  0  0  0  0
   13.3875    6.1495    0.0000 C   0  0  0  0  0  0  0  0  0  0  0  0
   13.3875    6.9745    0.0000 O   0  0  0  0  0  0  0  0  0  0  0  0
   14.1020    5.7370    0.0000 C   0  0  0  0  0  0  0  0  0  0  0  0
   14.8164    6.1495    0.0000 C   0  0  0  0  0  0  0  0  0  0  0  0
   15.5309    5.7370    0.0000 C   0  0  0  0  0  0  0  0  0  0  0  0
   16.2454    6.1495    0.0000 C   0  0  0  0  0  0  0  0  0  0  0  0
   16.9598    5.7370    0.0000 C   0  0  0  0  0  0  0  0  0  0  0  0
   16.9598    4.9120    0.0000 O   0  0  0  0  0  0  0  0  0  0  0  0
   17.6743    6.1495    0.0000 O   0  0  0  0  0  0  0  0  0  0  0  0
   18.3888    5.7370    0.0000 C   0  0  0  0  0  0  0  0  0  0  0  0
   19.1033    6.1495    0.0000 C   0  0  0  0  0  0  0  0  0  0  0  0
   19.1033    6.9745    0.0000 C   0  0  0  0  0  0  0  0  0  0  0  0
   19.8177    7.3870    0.0000 C   0  0  0  0  0  0  0  0  0  0  0  0
   19.8177    5.7370    0.0000 C   0  0  0  0  0  0  0  0  0  0  0  0
   20.5322    6.1495    0.0000 C   0  0  0  0  0  0  0  0  0  0  0  0
   21.2467    5.7370    0.0000 C   0  0  0  0  0  0  0  0  0  0  0  0
   21.9611    6.1495    0.0000 C   0  0  0  0  0  0  0  0  0  0  0  0
  1  2  1  0
  2  3  1  0
  3  4  1  0
  4  5  1  0
  5  6  1  0
  6  7  1  0
  5  8  1  0
  8  9  1  0
  9 10  1  0
 10 11  2  0
 10 12  1  0
 12 13  1  0
 13 14  1  0
 14 15  1  0
 15 16  1  0
 16 17  2  0
 16 18  1  0
 18 19  1  0
 19 20  1  0
 20 21  1  0
 21 22  1  0
 20 23  1  0
 23 24  1  0
 24 25  1  0
 25 26  1  0
M  END
>  <name>  (205) 
1,6-bis(2-ethylhexyl) hexanedioate

>  <Outcome>  (205) 
0

>  <SMILES>  (205) 
CCCCC(CC)COC(=O)CCCCC(=O)OCC(CC)CCCC

$$$$

     RDKit          2D

 11 11  0  0  0  0  0  0  0  0999 V2000
    1.5633    0.5533    0.0000 N   0  0  0  0  0  0  0  0  0  0  0  0
    0.8488    0.1408    0.0000 C   0  0  0  0  0  0  0  0  0  0  0  0
    0.1343    0.5533    0.0000 C   0  0  0  0  0  0  0  0  0  0  0  0
   -0.5801    0.1408    0.0000 C   0  0  0  0  0  0  0  0  0  0  0  0
   -0.5801   -0.6842    0.0000 C   0  0  0  0  0  0  0  0  0  0  0  0
    0.1343   -1.0967    0.0000 C   0  0  0  0  0  0  0  0  0  0  0  0
    0.8488   -0.6842    0.0000 C   0  0  0  0  0  0  0  0  0  0  0  0
    1.5633   -1.0967    0.0000 O   0  0  0  0  0  0  0  0  0  0  0  0
   -1.2946    0.5533    0.0000 N   0  0  0  0  0  0  0  0  0  0  0  0
   -2.0091    0.1408    0.0000 O   0  0  0  0  0  0  0  0  0  0  0  0
   -1.2946    1.3783    0.0000 O   0  0  0  0  0  0  0  0  0  0  0  0
  1  2  1  0
  3  2  2  0
  4  3  1  0
  5  4  2  0
  6  5  1  0
  7  6  2  0
  7  8  1  0
  4  9  1  0
  9 10  1  0
  9 11  2  0
  2  7  1  0
M  CHG  2   9   1  10  -1
M  END
>  <name>  (206) 
2-Amino-4-nitrophenol

>  <Outcome>  (206) 
0

>  <SMILES>  (206) 
Nc1cc([N+](=O)[O-])ccc1O

$$$$

     RDKit          2D

  6  5  0  0  0  0  0  0  0  0999 V2000
    0.0000    0.0000    0.0000 C   0  0  0  0  0  0  0  0  0  0  0  0
    1.2990    0.7500    0.0000 O   0  0  0  0  0  0  0  0  0  0  0  0
    2.5981   -0.0000    0.0000 S   0  0  0  0  0  0  0  0  0  0  0  0
    1.8481   -1.2990    0.0000 O   0  0  0  0  0  0  0  0  0  0  0  0
    3.3481    1.2990    0.0000 O   0  0  0  0  0  0  0  0  0  0  0  0
    3.8971   -0.7500    0.0000 C   0  0  0  0  0  0  0  0  0  0  0  0
  1  2  1  0
  2  3  1  0
  3  4  2  0
  3  5  2  0
  3  6  1  0
M  END
>  <name>  (207) 
methyl methanesulfonate

>  <Outcome>  (207) 
2

>  <SMILES>  (207) 
COS(C)(=O)=O

$$$$

     RDKit          2D

  6  5  0  0  0  0  0  0  0  0999 V2000
   -0.1914    0.7123    0.0000 C   0  0  0  0  0  0  0  0  0  0  0  0
    0.5230    1.1248    0.0000 C   0  0  0  0  0  0  0  0  0  0  0  0
    1.2375    0.7123    0.0000 C   0  0  0  0  0  0  0  0  0  0  0  0
    1.9520    1.1248    0.0000 C   0  0  0  0  0  0  0  0  0  0  0  0
    2.6664    0.7123    0.0000 C   0  0  0  0  0  0  0  0  0  0  0  0
    3.3809    1.1248    0.0000 O   0  0  0  0  0  0  0  0  0  0  0  0
  1  2  1  0
  2  3  1  0
  3  4  1  0
  4  5  1  0
  5  6  2  0
M  END
>  <name>  (208) 
valeraldehyde

>  <Outcome>  (208) 
1

>  <SMILES>  (208) 
CCCCC=O

$$$$

     RDKit          2D

 12 11  0  0  0  0  0  0  0  0999 V2000
   -0.6039   -2.4750    0.0000 F   0  0  0  0  0  0  0  0  0  0  0  0
    0.1105   -2.0625    0.0000 C   0  0  0  0  0  0  0  0  0  0  0  0
    0.5230   -2.7770    0.0000 F   0  0  0  0  0  0  0  0  0  0  0  0
   -0.3020   -1.3480    0.0000 F   0  0  0  0  0  0  0  0  0  0  0  0
    0.8250   -1.6500    0.0000 O   0  0  0  0  0  0  0  0  0  0  0  0
    0.8250   -0.8250    0.0000 C   0  0  0  0  0  0  0  0  0  0  0  0
    1.6500   -0.8250    0.0000 F   0  0  0  0  0  0  0  0  0  0  0  0
   -0.0000   -0.8250    0.0000 Cl  0  0  0  0  0  0  0  0  0  0  0  0
    0.8250   -0.0000    0.0000 C   0  0  0  0  0  0  0  0  0  0  0  0
    0.8250    0.8250    0.0000 F   0  0  0  0  0  0  0  0  0  0  0  0
    1.6500   -0.0000    0.0000 F   0  0  0  0  0  0  0  0  0  0  0  0
   -0.0000   -0.0000    0.0000 Cl  0  0  0  0  0  0  0  0  0  0  0  0
  1  2  1  0
  2  3  1  0
  2  4  1  0
  2  5  1  0
  5  6  1  0
  6  7  1  0
  6  8  1  0
  6  9  1  0
  9 10  1  0
  9 11  1  0
  9 12  1  0
M  END
>  <name>  (209) 
1,2-dichloro-1,1,2-trifluoro-2-(trifluoromethoxy)ethane

>  <Outcome>  (209) 
0

>  <SMILES>  (209) 
FC(F)(F)OC(F)(Cl)C(F)(F)Cl

$$$$

     RDKit          2D

 34 35  0  0  0  0  0  0  0  0999 V2000
    1.5817   -8.4729    0.0000 C   0  0  0  0  0  0  0  0  0  0  0  0
    2.1120   -7.8410    0.0000 C   0  0  0  0  0  0  0  0  0  0  0  0
    2.6423   -8.4729    0.0000 C   0  0  0  0  0  0  0  0  0  0  0  0
    1.3976   -7.4285    0.0000 C   0  0  0  0  0  0  0  0  0  0  0  0
    1.3976   -6.6035    0.0000 N   0  0  0  0  0  0  0  0  0  0  0  0
    2.1120   -6.1910    0.0000 C   0  0  0  0  0  0  0  0  0  0  0  0
    2.8265   -6.6035    0.0000 C   0  0  0  0  0  0  0  0  0  0  0  0
    3.1087   -5.8282    0.0000 C   0  0  0  0  0  0  0  0  0  0  0  0
    3.6390   -6.7467    0.0000 C   0  0  0  0  0  0  0  0  0  0  0  0
    2.8265   -7.4285    0.0000 C   0  0  0  0  0  0  0  0  0  0  0  0
    3.5410   -7.8410    0.0000 O   0  0  0  0  0  0  0  0  0  0  0  0
    4.2555   -7.4285    0.0000 C   0  0  0  0  0  0  0  0  0  0  0  0
    4.2555   -6.6035    0.0000 O   0  0  0  0  0  0  0  0  0  0  0  0
    4.9699   -7.8410    0.0000 C   0  0  0  0  0  0  0  0  0  0  0  0
    5.6844   -7.4285    0.0000 C   0  0  0  0  0  0  0  0  0  0  0  0
    6.3989   -7.8410    0.0000 C   0  0  0  0  0  0  0  0  0  0  0  0
    7.1133   -7.4285    0.0000 C   0  0  0  0  0  0  0  0  0  0  0  0
    7.8278   -7.8410    0.0000 C   0  0  0  0  0  0  0  0  0  0  0  0
    8.5423   -7.4285    0.0000 C   0  0  0  0  0  0  0  0  0  0  0  0
    9.2568   -7.8410    0.0000 C   0  0  0  0  0  0  0  0  0  0  0  0
    9.9712   -7.4285    0.0000 C   0  0  0  0  0  0  0  0  0  0  0  0
   10.6857   -7.8410    0.0000 C   0  0  0  0  0  0  0  0  0  0  0  0
   10.6857   -8.6660    0.0000 O   0  0  0  0  0  0  0  0  0  0  0  0
   11.4002   -7.4285    0.0000 O   0  0  0  0  0  0  0  0  0  0  0  0
   12.1146   -7.8410    0.0000 C   0  0  0  0  0  0  0  0  0  0  0  0
   12.8291   -7.4285    0.0000 C   0  0  0  0  0  0  0  0  0  0  0  0
   12.2988   -6.7965    0.0000 C   0  0  0  0  0  0  0  0  0  0  0  0
   13.3594   -6.7965    0.0000 C   0  0  0  0  0  0  0  0  0  0  0  0
   13.5436   -7.8410    0.0000 C   0  0  0  0  0  0  0  0  0  0  0  0
   13.5436   -8.6660    0.0000 N   0  0  0  0  0  0  0  0  0  0  0  0
   12.8291   -9.0785    0.0000 C   0  0  0  0  0  0  0  0  0  0  0  0
   12.1146   -8.6660    0.0000 C   0  0  0  0  0  0  0  0  0  0  0  0
   11.6775   -9.3656    0.0000 C   0  0  0  0  0  0  0  0  0  0  0  0
   11.2901   -8.6947    0.0000 C   0  0  0  0  0  0  0  0  0  0  0  0
  1  2  1  0
  2  3  1  0
  2  4  1  0
  4  5  1  0
  5  6  1  0
  6  7  1  0
  7  8  1  0
  7  9  1  0
  7 10  1  0
  2 10  1  0
 10 11  1  0
 11 12  1  0
 12 13  2  0
 12 14  1  0
 14 15  1  0
 15 16  1  0
 16 17  1  0
 17 18  1  0
 18 19  1  0
 19 20  1  0
 20 21  1  0
 21 22  1  0
 22 23  2  0
 22 24  1  0
 24 25  1  0
 25 26  1  0
 26 27  1  0
 26 28  1  0
 26 29  1  0
 29 30  1  0
 30 31  1  0
 31 32  1  0
 25 32  1  0
 32 33  1  0
 32 34  1  0
M  END
>  <name>  (210) 
bis(2,2,6,6-tetramethylpiperidin-4-yl) decanedioate

>  <Outcome>  (210) 
1

>  <SMILES>  (210) 
CC1(C)CNCC(C)(C)C1OC(=O)CCCCCCCCC(=O)OC1C(C)(C)CNCC1(C)C

$$$$

     RDKit          2D

 10 10  0  0  0  0  0  0  0  0999 V2000
    0.0000    3.3000    0.0000 N   0  0  0  0  0  0  0  0  0  0  0  0
    0.0000    2.4750    0.0000 C   0  0  0  0  0  0  0  0  0  0  0  0
    0.7145    2.0625    0.0000 C   0  0  0  0  0  0  0  0  0  0  0  0
    0.7145    1.2375    0.0000 C   0  0  0  0  0  0  0  0  0  0  0  0
    1.4289    0.8250    0.0000 C   0  0  0  0  0  0  0  0  0  0  0  0
    1.4289   -0.0000    0.0000 C   0  0  0  0  0  0  0  0  0  0  0  0
    0.7145   -0.4125    0.0000 C   0  0  0  0  0  0  0  0  0  0  0  0
    0.7145   -1.2375    0.0000 O   0  0  0  0  0  0  0  0  0  0  0  0
    0.0000    0.0000    0.0000 C   0  0  0  0  0  0  0  0  0  0  0  0
    0.0000    0.8250    0.0000 C   0  0  0  0  0  0  0  0  0  0  0  0
  1  2  1  0
  2  3  1  0
  3  4  1  0
  4  5  2  0
  5  6  1  0
  6  7  2  0
  7  8  1  0
  7  9  1  0
  9 10  2  0
  4 10  1  0
M  END
>  <name>  (211) 
4-(2-aminoethyl)phenol

>  <Outcome>  (211) 
0

>  <SMILES>  (211) 
NCCc1ccc(O)cc1

$$$$

     RDKit          2D

 15 16  0  0  0  0  0  0  0  0999 V2000
    4.6740   -4.8322    0.0000 C   0  0  0  0  0  0  0  0  0  0  0  0
    3.3037   -4.2221    0.0000 C   0  0  0  0  0  0  0  0  0  0  0  0
    2.9918   -2.7549    0.0000 C   0  0  0  0  0  0  0  0  0  0  0  0
    1.5000   -2.5981    0.0000 C   0  0  0  0  0  0  0  0  0  0  0  0
    0.8899   -3.9684    0.0000 N   0  0  0  0  0  0  0  0  0  0  0  0
    2.0046   -4.9721    0.0000 O   0  0  0  0  0  0  0  0  0  0  0  0
    0.7500   -1.2990    0.0000 C   0  0  0  0  0  0  0  0  0  0  0  0
    1.5000    0.0000    0.0000 C   0  0  0  0  0  0  0  0  0  0  0  0
    0.7500    1.2990    0.0000 C   0  0  0  0  0  0  0  0  0  0  0  0
   -0.7500    1.2990    0.0000 C   0  0  0  0  0  0  0  0  0  0  0  0
   -1.5000    0.0000    0.0000 C   0  0  0  0  0  0  0  0  0  0  0  0
   -0.7500   -1.2990    0.0000 C   0  0  0  0  0  0  0  0  0  0  0  0
    3.9955   -1.6402    0.0000 C   0  0  0  0  0  0  0  0  0  0  0  0
    5.4627   -1.9520    0.0000 O   0  0  0  0  0  0  0  0  0  0  0  0
    3.5320   -0.2136    0.0000 Cl  0  0  0  0  0  0  0  0  0  0  0  0
  1  2  1  0
  2  3  2  0
  3  4  1  0
  4  5  2  0
  5  6  1  0
  4  7  1  0
  7  8  2  0
  8  9  1  0
  9 10  2  0
 10 11  1  0
 11 12  2  0
  3 13  1  0
 13 14  2  0
 13 15  1  0
  6  2  1  0
 12  7  1  0
M  END
>  <name>  (212) 
5-methyl-3-phenyl-1,2-oxazole-4-carbonyl chloride

>  <Outcome>  (212) 
2

>  <SMILES>  (212) 
Cc1onc(-c2ccccc2)c1C(=O)Cl

$$$$

     RDKit          2D

 22 15  0  0  0  0  0  0  0  0999 V2000
    0.0000    0.0000    0.0000 C   0  0  0  0  0  0  0  0  0  0  0  0
   -0.0000   -1.5000    0.0000 O   0  0  0  0  0  0  0  0  0  0  0  0
    1.2990    0.7500    0.0000 C   0  0  0  0  0  0  0  0  0  0  0  0
    1.2990    2.2500    0.0000 O   0  0  0  0  0  0  0  0  0  0  0  0
    2.5981   -0.0000    0.0000 O   0  0  0  0  0  1  0  0  0  0  0  0
   -1.2990    0.7500    0.0000 O   0  0  0  0  0  1  0  0  0  0  0  0
    0.0000    4.7500    0.0000 C   0  0  0  0  0  0  0  0  0  0  0  0
   -0.0000    3.2500    0.0000 O   0  0  0  0  0  0  0  0  0  0  0  0
    1.2990    5.5000    0.0000 C   0  0  0  0  0  0  0  0  0  0  0  0
    1.2990    7.0000    0.0000 O   0  0  0  0  0  0  0  0  0  0  0  0
    2.5981    4.7500    0.0000 O   0  0  0  0  0  1  0  0  0  0  0  0
   -1.2990    5.5000    0.0000 O   0  0  0  0  0  1  0  0  0  0  0  0
    4.8971    0.0000    0.0000 C   0  0  0  0  0  0  0  0  0  0  0  0
    4.8971   -1.5000    0.0000 O   0  0  0  0  0  0  0  0  0  0  0  0
    6.1962    0.7500    0.0000 C   0  0  0  0  0  0  0  0  0  0  0  0
    6.1962    2.2500    0.0000 O   0  0  0  0  0  0  0  0  0  0  0  0
    7.4952   -0.0000    0.0000 O   0  0  0  0  0  1  0  0  0  0  0  0
    3.5981    0.7500    0.0000 O   0  0  0  0  0  1  0  0  0  0  0  0
    0.0000    8.0000    0.0000 N   0  0  0  0  0  4  0  0  0  0  0  0
    8.4952    0.0000    0.0000 N   0  0  0  0  0  4  0  0  0  0  0  0
    0.0000    9.0000    0.0000 N   0  0  0  0  0  4  0  0  0  0  0  0
    9.4952    0.0000    0.0000 Fe  0  0  0  0  0 15  0  0  0  0  0  0
  1  2  2  0
  1  3  1  0
  3  4  2  0
  3  5  1  0
  1  6  1  0
  7  8  2  0
  7  9  1  0
  9 10  2  0
  9 11  1  0
  7 12  1  0
 13 14  2  0
 13 15  1  0
 15 16  2  0
 15 17  1  0
 13 18  1  0
M  CHG  8   5  -1   6  -1  11  -1  12  -1  17  -1  18  -1  19   1  20   1
M  CHG  2  21   1  22   3
M  END
>  <name>  (213) 
triazanium;iron(3+);oxalate

>  <Outcome>  (213) 
2

>  <SMILES>  (213) 
O=C([O-])C(=O)[O-].O=C([O-])C(=O)[O-].O=C([O-])C(=O)[O-].[Fe+3].[NH4+].[NH4+].[NH4+]

$$$$

     RDKit          2D

 12 11  0  0  0  0  0  0  0  0999 V2000
   -0.7882   -0.7013    0.0000 C   0  0  0  0  0  0  0  0  0  0  0  0
   -0.0737   -1.1138    0.0000 Si  0  0  0  0  0  3  0  0  0  0  0  0
   -0.0737   -1.9388    0.0000 O   0  0  0  0  0  0  0  0  0  0  0  0
   -0.7882   -2.3513    0.0000 Si  0  0  0  0  0  4  0  0  0  0  0  0
   -1.5027   -2.7638    0.0000 C   0  0  0  0  0  0  0  0  0  0  0  0
   -0.3757   -3.0658    0.0000 C   0  0  0  0  0  0  0  0  0  0  0  0
   -1.2007   -1.6369    0.0000 C   0  0  0  0  0  0  0  0  0  0  0  0
    0.6407   -0.7013    0.0000 O   0  0  0  0  0  0  0  0  0  0  0  0
    0.6407    0.1237    0.0000 Si  0  0  0  0  0  4  0  0  0  0  0  0
    0.6407    0.9487    0.0000 C   0  0  0  0  0  0  0  0  0  0  0  0
    1.4657    0.1237    0.0000 C   0  0  0  0  0  0  0  0  0  0  0  0
   -0.1843    0.1237    0.0000 C   0  0  0  0  0  0  0  0  0  0  0  0
  1  2  1  0
  2  3  1  0
  3  4  1  0
  4  5  1  0
  4  6  1  0
  4  7  1  0
  2  8  1  0
  8  9  1  0
  9 10  1  0
  9 11  1  0
  9 12  1  0
M  RAD  1   2   2
M  END
>  <name>  (214) 
2,2,4,6,6-pentamethyl-3,5-dioxa-2,4,6-trisilaheptane

>  <Outcome>  (214) 
0

>  <SMILES>  (214) 
C[Si](O[Si](C)(C)C)O[Si](C)(C)C

$$$$

     RDKit          2D

  6  5  0  0  0  0  0  0  0  0999 V2000
   -0.1913    0.7125    0.0000 C   0  0  0  0  0  0  0  0  0  0  0  0
    0.5231    1.1250    0.0000 C   0  0  0  0  0  0  0  0  0  0  0  0
    1.2376    0.7125    0.0000 O   0  0  0  0  0  0  0  0  0  0  0  0
    1.9521    1.1250    0.0000 C   0  0  0  0  0  0  0  0  0  0  0  0
    2.6666    0.7125    0.0000 C   0  0  0  0  0  0  0  0  0  0  0  0
    3.3810    1.1250    0.0000 N   0  0  0  0  0  0  0  0  0  0  0  0
  1  2  1  0
  2  3  1  0
  3  4  1  0
  4  5  1  0
  5  6  1  0
M  END
>  <name>  (215) 
2-ethoxyethanamine

>  <Outcome>  (215) 
0

>  <SMILES>  (215) 
CCOCCN

$$$$

     RDKit          2D

  6  5  0  0  0  0  0  0  0  0999 V2000
    2.5288   -0.7762    0.0000 Cl  0  0  0  0  0  0  0  0  0  0  0  0
    2.1163   -0.0618    0.0000 C   0  0  0  0  0  0  0  0  0  0  0  0
    1.2913   -0.0618    0.0000 C   0  0  0  0  0  0  0  0  0  0  0  0
    0.8788   -0.7762    0.0000 Cl  0  0  0  0  0  0  0  0  0  0  0  0
    0.8788    0.6527    0.0000 C   0  0  0  0  0  0  0  0  0  0  0  0
    0.0538    0.6527    0.0000 C   0  0  0  0  0  0  0  0  0  0  0  0
  1  2  1  0
  2  3  1  0
  3  4  1  0
  3  5  1  0
  5  6  2  0
M  END
>  <name>  (216) 
3,4-Dichloro-1-butene

>  <Outcome>  (216) 
1

>  <SMILES>  (216) 
C=CC(Cl)CCl

$$$$

     RDKit          2D

  6  5  0  0  0  0  0  0  0  0999 V2000
    0.0000    0.0000    0.0000 C   0  0  0  0  0  0  0  0  0  0  0  0
    1.2990    0.7500    0.0000 C   0  0  0  0  0  0  0  0  0  0  0  0
    2.5981   -0.0000    0.0000 C   0  0  0  0  0  0  0  0  0  0  0  0
    2.5981   -1.5000    0.0000 O   0  0  0  0  0  0  0  0  0  0  0  0
    3.8971    0.7500    0.0000 C   0  0  0  0  0  0  0  0  0  0  0  0
    1.2990    2.2500    0.0000 Cl  0  0  0  0  0  0  0  0  0  0  0  0
  1  2  1  0
  2  3  1  0
  3  4  2  0
  3  5  1  0
  2  6  1  0
M  END
>  <name>  (217) 
3-chlorobutan-2-one

>  <Outcome>  (217) 
2

>  <SMILES>  (217) 
CC(=O)C(C)Cl

$$$$

     RDKit          2D

 11 11  0  0  0  0  0  0  0  0999 V2000
    3.2869    0.1812    0.0000 C   0  0  0  0  0  0  0  0  0  0  0  0
    2.5725   -0.2313    0.0000 C   0  0  0  0  0  0  0  0  0  0  0  0
    1.8580    0.1812    0.0000 N   0  0  0  0  0  0  0  0  0  0  0  0
    1.8580    1.0062    0.0000 C   0  0  0  0  0  0  0  0  0  0  0  0
    1.1435    1.4187    0.0000 C   0  0  0  0  0  0  0  0  0  0  0  0
    1.1435   -0.2313    0.0000 C   0  0  0  0  0  0  0  0  0  0  0  0
    0.4291    0.1812    0.0000 C   0  0  0  0  0  0  0  0  0  0  0  0
   -0.2854   -0.2313    0.0000 C   0  0  0  0  0  0  0  0  0  0  0  0
   -0.2854   -1.0563    0.0000 C   0  0  0  0  0  0  0  0  0  0  0  0
    0.4291   -1.4688    0.0000 C   0  0  0  0  0  0  0  0  0  0  0  0
    1.1435   -1.0563    0.0000 C   0  0  0  0  0  0  0  0  0  0  0  0
  1  2  1  0
  2  3  1  0
  3  4  1  0
  4  5  1  0
  3  6  1  0
  7  6  2  0
  8  7  1  0
  9  8  2  0
 10  9  1  0
 11 10  2  0
  6 11  1  0
M  END
>  <name>  (218) 
N,N-Diethylaniline

>  <Outcome>  (218) 
1

>  <SMILES>  (218) 
CCN(CC)c1ccccc1

$$$$

     RDKit          2D

  9  9  0  0  0  0  0  0  0  0999 V2000
    2.1829    0.2652    0.0000 Cl  0  0  0  0  0  0  0  0  0  0  0  0
    1.4684    0.6777    0.0000 C   0  0  0  0  0  0  0  0  0  0  0  0
    1.4684    1.5027    0.0000 O   0  0  0  0  0  0  0  0  0  0  0  0
    0.7540    0.2652    0.0000 C   0  0  0  0  0  0  0  0  0  0  0  0
    0.0395    0.6777    0.0000 C   0  0  0  0  0  0  0  0  0  0  0  0
   -0.6750    0.2652    0.0000 C   0  0  0  0  0  0  0  0  0  0  0  0
   -0.6750   -0.5598    0.0000 C   0  0  0  0  0  0  0  0  0  0  0  0
    0.0395   -0.9723    0.0000 C   0  0  0  0  0  0  0  0  0  0  0  0
    0.7540   -0.5598    0.0000 C   0  0  0  0  0  0  0  0  0  0  0  0
  1  2  1  0
  2  3  2  0
  2  4  1  0
  5  4  2  0
  6  5  1  0
  7  6  2  0
  8  7  1  0
  9  8  2  0
  4  9  1  0
M  END
>  <name>  (219) 
Benzoyl chloride

>  <Outcome>  (219) 
1

>  <SMILES>  (219) 
O=C(Cl)c1ccccc1

$$$$

     RDKit          2D

  8  8  0  0  0  0  0  0  0  0999 V2000
    2.1829    0.2652    0.0000 O   0  0  0  0  0  0  0  0  0  0  0  0
    1.4684    0.6777    0.0000 C   0  0  0  0  0  0  0  0  0  0  0  0
    0.7540    0.2652    0.0000 C   0  0  0  0  0  0  0  0  0  0  0  0
    0.0395    0.6777    0.0000 C   0  0  0  0  0  0  0  0  0  0  0  0
   -0.6750    0.2652    0.0000 C   0  0  0  0  0  0  0  0  0  0  0  0
   -0.6750   -0.5598    0.0000 C   0  0  0  0  0  0  0  0  0  0  0  0
    0.0395   -0.9723    0.0000 C   0  0  0  0  0  0  0  0  0  0  0  0
    0.7540   -0.5598    0.0000 C   0  0  0  0  0  0  0  0  0  0  0  0
  1  2  2  0
  2  3  1  0
  4  3  2  0
  5  4  1  0
  6  5  2  0
  7  6  1  0
  8  7  2  0
  3  8  1  0
M  END
>  <name>  (220) 
Benzaldehyde

>  <Outcome>  (220) 
1

>  <SMILES>  (220) 
O=Cc1ccccc1

$$$$

     RDKit          2D

  6  5  0  0  0  0  0  0  0  0999 V2000
    2.5376   -1.4669    0.0000 C   0  0  0  0  0  0  0  0  0  0  0  0
    2.1251   -0.7525    0.0000 C   0  0  0  0  0  0  0  0  0  0  0  0
    1.3001   -0.7525    0.0000 C   0  0  0  0  0  0  0  0  0  0  0  0
    0.8876   -1.4669    0.0000 C   0  0  0  0  0  0  0  0  0  0  0  0
    0.8876   -0.0380    0.0000 C   0  0  0  0  0  0  0  0  0  0  0  0
    0.0626   -0.0380    0.0000 O   0  0  0  0  0  0  0  0  0  0  0  0
  1  2  1  0
  2  3  1  0
  3  4  1  0
  3  5  1  0
  5  6  2  0
M  END
>  <name>  (221) 
2-methylbutanal

>  <Outcome>  (221) 
0

>  <SMILES>  (221) 
CCC(C)C=O

$$$$

     RDKit          2D

 16 15  0  0  0  0  0  0  0  0999 V2000
   -1.0967    7.6176    0.0000 C   0  0  0  0  0  0  0  0  0  0  0  0
   -1.0967    6.7926    0.0000 C   0  0  0  0  0  0  0  0  0  0  0  0
   -0.3822    6.3801    0.0000 C   0  0  0  0  0  0  0  0  0  0  0  0
   -0.3822    5.5551    0.0000 C   0  0  0  0  0  0  0  0  0  0  0  0
    0.3322    5.1426    0.0000 C   0  0  0  0  0  0  0  0  0  0  0  0
    0.3322    4.3176    0.0000 C   0  0  0  0  0  0  0  0  0  0  0  0
    1.0467    3.9051    0.0000 C   0  0  0  0  0  0  0  0  0  0  0  0
    1.0467    3.0801    0.0000 C   0  0  0  0  0  0  0  0  0  0  0  0
    1.7612    2.6676    0.0000 C   0  0  0  0  0  0  0  0  0  0  0  0
    1.7612    1.8426    0.0000 C   0  0  0  0  0  0  0  0  0  0  0  0
    2.4757    1.4301    0.0000 C   0  0  0  0  0  0  0  0  0  0  0  0
    3.1901    1.8426    0.0000 C   0  0  0  0  0  0  0  0  0  0  0  0
    3.9046    1.4301    0.0000 C   0  0  0  0  0  0  0  0  0  0  0  0
    4.6191    1.8426    0.0000 C   0  0  0  0  0  0  0  0  0  0  0  0
    5.3335    1.4301    0.0000 C   0  0  0  0  0  0  0  0  0  0  0  0
    6.0480    1.8426    0.0000 C   0  0  0  0  0  0  0  0  0  0  0  0
  1  2  1  0
  2  3  1  0
  3  4  1  0
  5  4  1  0
  5  6  2  3
  6  7  1  0
  7  8  1  0
  9  8  1  0
  9 10  2  3
 10 11  1  0
 11 12  1  0
 12 13  1  0
 13 14  1  0
 14 15  1  0
 15 16  1  0
M  END
>  <name>  (222) 
Alkenes, C15-18

>  <Outcome>  (222) 
0

>  <SMILES>  (222) 
CCCCC=CCCC=CCCCCCC

$$$$

     RDKit          2D

  9  8  0  0  0  0  0  0  0  0999 V2000
    0.0000    0.0000    0.0000 C   0  0  0  0  0  0  0  0  0  0  0  0
    1.2990    0.7500    0.0000 C   0  0  0  0  0  0  0  0  0  0  0  0
    2.5981   -0.0000    0.0000 C   0  0  0  0  0  0  0  0  0  0  0  0
    2.5981   -1.5000    0.0000 O   0  0  0  0  0  0  0  0  0  0  0  0
    3.8971    0.7500    0.0000 O   0  0  0  0  0  0  0  0  0  0  0  0
   -1.2990    0.7500    0.0000 C   0  0  0  0  0  0  0  0  0  0  0  0
   -2.5981    0.0000    0.0000 C   0  0  0  0  0  0  0  0  0  0  0  0
   -2.5981   -1.5000    0.0000 O   0  0  0  0  0  0  0  0  0  0  0  0
   -3.8971    0.7500    0.0000 O   0  0  0  0  0  0  0  0  0  0  0  0
  1  2  1  0
  2  3  1  0
  3  4  2  0
  3  5  1  0
  1  6  1  0
  6  7  1  0
  7  8  2  0
  7  9  1  0
M  END
>  <name>  (223) 
pentanedioic acid

>  <Outcome>  (223) 
2

>  <SMILES>  (223) 
O=C(O)CCCC(=O)O

$$$$

     RDKit          2D

  6  5  0  0  0  0  0  0  0  0999 V2000
    0.4085    2.1434    0.0000 N   0  0  0  0  0  0  0  0  0  0  0  0
    0.8210    1.4289    0.0000 C   0  0  0  0  0  0  0  0  0  0  0  0
    1.2335    0.7145    0.0000 C   0  0  0  0  0  0  0  0  0  0  0  0
    0.8210    0.0000    0.0000 C   0  0  0  0  0  0  0  0  0  0  0  0
    1.2335   -0.7145    0.0000 O   0  0  0  0  0  0  0  0  0  0  0  0
   -0.0040    0.0000    0.0000 O   0  0  0  0  0  0  0  0  0  0  0  0
  1  2  3  0
  2  3  1  0
  3  4  1  0
  4  5  2  0
  4  6  1  0
M  END
>  <name>  (224) 
2-cyanoacetic acid

>  <Outcome>  (224) 
1

>  <SMILES>  (224) 
N#CCC(=O)O

$$$$

     RDKit          2D

  6  5  0  0  0  0  0  0  0  0999 V2000
    0.8894   -1.5442    0.0000 C   0  0  0  0  0  0  0  0  0  0  0  0
    0.8894   -0.7192    0.0000 C   0  0  0  0  0  0  0  0  0  0  0  0
    0.8894    0.1058    0.0000 C   0  0  0  0  0  0  0  0  0  0  0  0
    0.8894    0.9308    0.0000 C   0  0  0  0  0  0  0  0  0  0  0  0
    1.7144    0.1058    0.0000 C   0  0  0  0  0  0  0  0  0  0  0  0
    0.0644    0.1058    0.0000 O   0  0  0  0  0  0  0  0  0  0  0  0
  1  2  3  0
  2  3  1  0
  3  4  1  0
  3  5  1  0
  3  6  1  0
M  END
>  <name>  (225) 
2-methylbut-3-yn-2-ol

>  <Outcome>  (225) 
0

>  <SMILES>  (225) 
C#CC(C)(C)O

$$$$

     RDKit          2D

  8  8  0  0  0  0  0  0  0  0999 V2000
    1.4227    0.7383    0.0000 O   0  0  0  0  0  0  0  0  0  0  0  0
    0.7082    0.3258    0.0000 C   0  0  0  0  0  0  0  0  0  0  0  0
   -0.0062    0.7383    0.0000 C   0  0  0  0  0  0  0  0  0  0  0  0
   -0.7207    0.3258    0.0000 C   0  0  0  0  0  0  0  0  0  0  0  0
   -0.7207   -0.4992    0.0000 C   0  0  0  0  0  0  0  0  0  0  0  0
   -1.4352   -0.9117    0.0000 Cl  0  0  0  0  0  0  0  0  0  0  0  0
   -0.0062   -0.9117    0.0000 C   0  0  0  0  0  0  0  0  0  0  0  0
    0.7082   -0.4992    0.0000 C   0  0  0  0  0  0  0  0  0  0  0  0
  1  2  1  0
  3  2  2  0
  4  3  1  0
  5  4  2  0
  5  6  1  0
  7  5  1  0
  8  7  2  0
  2  8  1  0
M  END
>  <name>  (226) 
4-Chlorophenol

>  <Outcome>  (226) 
0

>  <SMILES>  (226) 
Oc1ccc(Cl)cc1

$$$$

     RDKit          2D

 13 13  0  0  0  0  0  0  0  0999 V2000
    0.0038    2.4180    0.0000 C   0  0  0  0  0  0  0  0  0  0  0  0
    0.7183    2.0055    0.0000 O   0  0  0  0  0  0  0  0  0  0  0  0
    0.7183    1.1805    0.0000 C   0  0  0  0  0  0  0  0  0  0  0  0
    1.4327    0.7680    0.0000 C   0  0  0  0  0  0  0  0  0  0  0  0
    1.4327   -0.0570    0.0000 C   0  0  0  0  0  0  0  0  0  0  0  0
    0.7183   -0.4695    0.0000 C   0  0  0  0  0  0  0  0  0  0  0  0
    0.7183   -1.2945    0.0000 C   0  0  0  0  0  0  0  0  0  0  0  0
    0.0038   -1.7070    0.0000 C   0  0  0  0  0  0  0  0  0  0  0  0
    0.0038   -2.5320    0.0000 N   0  0  0  0  0  0  0  0  0  0  0  0
    0.0038   -0.0570    0.0000 C   0  0  0  0  0  0  0  0  0  0  0  0
    0.0038    0.7680    0.0000 C   0  0  0  0  0  0  0  0  0  0  0  0
   -0.7107    1.1805    0.0000 O   0  0  0  0  0  0  0  0  0  0  0  0
   -0.7107    2.0055    0.0000 C   0  0  0  0  0  0  0  0  0  0  0  0
  1  2  1  0
  2  3  1  0
  3  4  2  0
  4  5  1  0
  5  6  2  0
  6  7  1  0
  7  8  1  0
  8  9  1  0
  6 10  1  0
 10 11  2  0
  3 11  1  0
 11 12  1  0
 12 13  1  0
M  END
>  <name>  (227) 
2-(3,4-dimethoxyphenyl)ethan-1-amine

>  <Outcome>  (227) 
0

>  <SMILES>  (227) 
COc1ccc(CCN)cc1OC

$$$$

     RDKit          2D

 10 10  0  0  0  0  0  0  0  0999 V2000
    0.7145    2.0625    0.0000 Cl  0  0  0  0  0  0  0  0  0  0  0  0
    0.7145    1.2375    0.0000 C   0  0  0  0  0  0  0  0  0  0  0  0
    1.4289    0.8250    0.0000 C   0  0  0  0  0  0  0  0  0  0  0  0
    1.4289   -0.0000    0.0000 C   0  0  0  0  0  0  0  0  0  0  0  0
    0.7145   -0.4125    0.0000 C   0  0  0  0  0  0  0  0  0  0  0  0
   -0.0000   -0.0000    0.0000 C   0  0  0  0  0  0  0  0  0  0  0  0
   -0.0000    0.8250    0.0000 C   0  0  0  0  0  0  0  0  0  0  0  0
   -0.7145    1.2375    0.0000 C   0  0  0  0  0  0  0  0  0  0  0  0
   -1.4289    0.8250    0.0000 Cl  0  0  0  0  0  0  0  0  0  0  0  0
   -0.7145    2.0625    0.0000 Cl  0  0  0  0  0  0  0  0  0  0  0  0
  1  2  1  0
  2  3  2  0
  3  4  1  0
  4  5  2  0
  5  6  1  0
  6  7  2  0
  2  7  1  0
  7  8  1  0
  8  9  1  0
  8 10  1  0
M  END
>  <name>  (228) 
1-chloro-2-(dichloromethyl)benzene

>  <Outcome>  (228) 
0

>  <SMILES>  (228) 
Clc1ccccc1C(Cl)Cl

$$$$

     RDKit          2D

 16 15  0  0  0  0  0  0  0  0999 V2000
    1.6461   -1.8768    0.0000 C   0  0  0  0  0  0  0  0  0  0  0  0
    2.3606   -1.4643    0.0000 C   0  0  0  0  0  0  0  0  0  0  0  0
    3.0751   -1.8768    0.0000 C   0  0  0  0  0  0  0  0  0  0  0  0
    3.7895   -1.4643    0.0000 C   0  0  0  0  0  0  0  0  0  0  0  0
    4.5040   -1.8768    0.0000 C   0  0  0  0  0  0  0  0  0  0  0  0
    4.5040   -2.7018    0.0000 C   0  0  0  0  0  0  0  0  0  0  0  0
    5.2185   -3.1143    0.0000 C   0  0  0  0  0  0  0  0  0  0  0  0
    5.2185   -1.4643    0.0000 C   0  0  0  0  0  0  0  0  0  0  0  0
    5.2185   -0.6393    0.0000 O   0  0  0  0  0  0  0  0  0  0  0  0
    5.9330   -1.8768    0.0000 O   0  0  0  0  0  0  0  0  0  0  0  0
    6.6474   -1.4643    0.0000 O   0  0  0  0  0  0  0  0  0  0  0  0
    7.3619   -1.8768    0.0000 C   0  0  0  0  0  0  0  0  0  0  0  0
    6.9494   -2.5913    0.0000 C   0  0  0  0  0  0  0  0  0  0  0  0
    7.7744   -1.1623    0.0000 C   0  0  0  0  0  0  0  0  0  0  0  0
    8.0764   -2.2893    0.0000 C   0  0  0  0  0  0  0  0  0  0  0  0
    8.7908   -1.8768    0.0000 C   0  0  0  0  0  0  0  0  0  0  0  0
  1  2  1  0
  2  3  1  0
  3  4  1  0
  4  5  1  0
  5  6  1  0
  6  7  1  0
  5  8  1  0
  8  9  2  0
  8 10  1  0
 10 11  1  0
 11 12  1  0
 12 13  1  0
 12 14  1  0
 12 15  1  0
 15 16  1  0
M  END
>  <name>  (229) 
1,1-dimethylpropyl 2-(ethylperoxy)hexanoate

>  <Outcome>  (229) 
0

>  <SMILES>  (229) 
CCCCC(CC)C(=O)OOC(C)(C)CC

$$$$

     RDKit          2D

  7  6  0  0  0  0  0  0  0  0999 V2000
    0.0000    0.0000    0.0000 C   0  0  0  0  0  0  0  0  0  0  0  0
    1.2990    0.7500    0.0000 O   0  0  0  0  0  0  0  0  0  0  0  0
    2.5981   -0.0000    0.0000 P   0  0  0  0  0  0  0  0  0  0  0  0
    3.3481    1.2990    0.0000 O   0  0  0  0  0  0  0  0  0  0  0  0
    1.8481   -1.2990    0.0000 C   0  0  0  0  0  0  0  0  0  0  0  0
    3.8971   -0.7500    0.0000 O   0  0  0  0  0  0  0  0  0  0  0  0
    3.8971   -2.2500    0.0000 C   0  0  0  0  0  0  0  0  0  0  0  0
  1  2  1  0
  2  3  1  0
  3  4  2  0
  3  5  1  0
  3  6  1  0
  6  7  1  0
M  END
>  <name>  (230) 
[methoxy(methyl)phosphoryl]oxymethane

>  <Outcome>  (230) 
2

>  <SMILES>  (230) 
COP(C)(=O)OC

$$$$

     RDKit          2D

  7  6  0  0  0  0  0  0  0  0999 V2000
    0.0000    0.0000    0.0000 C   0  0  0  0  0  0  0  0  0  0  0  0
    1.2990    0.7500    0.0000 C   0  0  0  0  0  0  0  0  0  0  0  0
    2.5981    1.5000    0.0000 F   0  0  0  0  0  0  0  0  0  0  0  0
    2.0490   -0.5490    0.0000 F   0  0  0  0  0  0  0  0  0  0  0  0
    0.5490    2.0490    0.0000 F   0  0  0  0  0  0  0  0  0  0  0  0
   -1.2990    0.7500    0.0000 Cl  0  0  0  0  0  0  0  0  0  0  0  0
   -0.0000   -1.5000    0.0000 Cl  0  0  0  0  0  0  0  0  0  0  0  0
  1  2  1  0
  2  3  1  0
  2  4  1  0
  2  5  1  0
  1  6  1  0
  1  7  1  0
M  END
>  <name>  (231) 
2,2-dichloro-1,1,1-trifluoroethane

>  <Outcome>  (231) 
2

>  <SMILES>  (231) 
FC(F)(F)C(Cl)Cl

$$$$

     RDKit          2D

  9  8  0  0  0  0  0  0  0  0999 V2000
    2.9980    2.5571    0.0000 C   0  0  0  0  0  0  0  0  0  0  0  0
    3.7125    2.1446    0.0000 C   0  0  0  0  0  0  0  0  0  0  0  0
    4.4270    2.5571    0.0000 C   0  0  0  0  0  0  0  0  0  0  0  0
    5.1414    2.1446    0.0000 C   0  0  0  0  0  0  0  0  0  0  0  0
    5.8559    2.5571    0.0000 C   0  0  0  0  0  0  0  0  0  0  0  0
    6.5704    2.1446    0.0000 C   0  0  0  0  0  0  0  0  0  0  0  0
    7.2849    2.5571    0.0000 C   0  0  0  0  0  0  0  0  0  0  0  0
    7.9993    2.1446    0.0000 C   0  0  0  0  0  0  0  0  0  0  0  0
    8.7138    2.5571    0.0000 C   0  0  0  0  0  0  0  0  0  0  0  0
  1  2  1  0
  2  3  1  0
  3  4  1  0
  4  5  1  0
  5  6  1  0
  6  7  1  0
  7  8  1  0
  8  9  1  0
M  END
>  <name>  (232) 
nonane

>  <Outcome>  (232) 
1

>  <SMILES>  (232) 
CCCCCCCCC

$$$$

     RDKit          2D

 17 18  0  0  0  0  0  0  0  0999 V2000
    2.2316   -0.4117    0.0000 C   0  0  0  0  0  0  0  0  0  0  0  0
    2.2316   -1.2367    0.0000 C   0  0  0  0  0  0  0  0  0  0  0  0
    2.9460   -1.6492    0.0000 C   0  0  0  0  0  0  0  0  0  0  0  0
    2.9460   -2.4742    0.0000 C   0  0  0  0  0  0  0  0  0  0  0  0
    3.6605   -2.8867    0.0000 C   0  0  0  0  0  0  0  0  0  0  0  0
    3.6605   -3.7117    0.0000 C   0  0  0  0  0  0  0  0  0  0  0  0
    4.3750   -4.1242    0.0000 C   0  0  0  0  0  0  0  0  0  0  0  0
    4.3750   -4.9492    0.0000 C   0  0  0  0  0  0  0  0  0  0  0  0
    3.6605   -5.3617    0.0000 C   0  0  0  0  0  0  0  0  0  0  0  0
    3.6605   -6.1867    0.0000 N   0  0  0  0  0  0  0  0  0  0  0  0
    2.9460   -4.9492    0.0000 C   0  0  0  0  0  0  0  0  0  0  0  0
    2.2316   -5.3617    0.0000 C   0  0  0  0  0  0  0  0  0  0  0  0
    2.9460   -4.1242    0.0000 C   0  0  0  0  0  0  0  0  0  0  0  0
    2.2316   -2.8867    0.0000 C   0  0  0  0  0  0  0  0  0  0  0  0
    1.5171   -2.4742    0.0000 C   0  0  0  0  0  0  0  0  0  0  0  0
    1.5171   -1.6492    0.0000 C   0  0  0  0  0  0  0  0  0  0  0  0
    0.8026   -1.2367    0.0000 N   0  0  0  0  0  0  0  0  0  0  0  0
  1  2  1  0
  2  3  1  0
  3  4  1  0
  4  5  1  0
  5  6  1  0
  6  7  1  0
  7  8  1  0
  8  9  1  0
  9 10  1  0
  9 11  1  0
 11 12  1  0
 11 13  1  0
  6 13  1  0
  4 14  1  0
 14 15  1  0
 15 16  1  0
  2 16  1  0
 16 17  1  0
M  END
>  <name>  (233) 
4-[(4-amino-3-methylcyclohexyl)methyl]-2-methylcyclohexan-1-amine

>  <Outcome>  (233) 
1

>  <SMILES>  (233) 
CC1CC(CC2CCC(N)C(C)C2)CCC1N

$$$$

     RDKit          2D

 12 12  0  0  0  0  0  0  0  0999 V2000
   -0.6060    3.7821    0.0000 C   0  0  0  0  0  0  0  0  0  0  0  0
    0.1085    3.3696    0.0000 C   0  0  0  0  0  0  0  0  0  0  0  0
    0.8229    3.7821    0.0000 C   0  0  0  0  0  0  0  0  0  0  0  0
    0.1085    2.5446    0.0000 C   0  0  0  0  0  0  0  0  0  0  0  0
   -0.6060    2.1321    0.0000 O   0  0  0  0  0  0  0  0  0  0  0  0
    0.8229    2.1321    0.0000 O   0  0  0  0  0  0  0  0  0  0  0  0
    0.8229    1.3071    0.0000 C   0  0  0  0  0  0  0  0  0  0  0  0
    1.5374    0.8946    0.0000 C   0  0  0  0  0  0  0  0  0  0  0  0
    1.5374    0.0696    0.0000 C   0  0  0  0  0  0  0  0  0  0  0  0
    0.8229   -0.3429    0.0000 C   0  0  0  0  0  0  0  0  0  0  0  0
    0.1085    0.0696    0.0000 C   0  0  0  0  0  0  0  0  0  0  0  0
    0.1085    0.8946    0.0000 C   0  0  0  0  0  0  0  0  0  0  0  0
  1  2  2  0
  2  3  1  0
  2  4  1  0
  4  5  2  0
  4  6  1  0
  6  7  1  0
  7  8  1  0
  8  9  1  0
  9 10  1  0
 10 11  1  0
 11 12  1  0
  7 12  1  0
M  END
>  <name>  (234) 
cyclohexyl 2-methylprop-2-enoate

>  <Outcome>  (234) 
0

>  <SMILES>  (234) 
C=C(C)C(=O)OC1CCCCC1

$$$$

     RDKit          2D

 11 12  0  0  0  0  0  0  0  0999 V2000
    0.1385    1.0341    0.0000 C   0  0  0  0  0  0  0  0  0  0  0  0
    0.7924    0.1662    0.0000 C   0  0  0  0  0  0  0  0  0  0  0  0
    0.1193   -0.6713    0.0000 C   0  0  0  0  0  0  0  0  0  0  0  0
    0.5861    0.9912    0.0000 C   0  0  0  0  0  0  0  0  0  0  0  0
   -0.1284    0.5787    0.0000 C   0  0  0  0  0  0  0  0  0  0  0  0
   -0.1284   -0.2463    0.0000 C   0  0  0  0  0  0  0  0  0  0  0  0
    0.5861   -0.6588    0.0000 C   0  0  0  0  0  0  0  0  0  0  0  0
    0.6566   -1.5341    0.0000 C   0  0  0  0  0  0  0  0  0  0  0  0
    1.3006   -0.2463    0.0000 C   0  0  0  0  0  0  0  0  0  0  0  0
    2.0546   -0.6584    0.0000 O   0  0  0  0  0  0  0  0  0  0  0  0
    1.3006    0.5787    0.0000 C   0  0  0  0  0  0  0  0  0  0  0  0
  1  2  1  0
  2  3  1  0
  4  2  1  0
  4  5  1  0
  5  6  1  0
  6  7  1  0
  7  8  1  0
  7  9  1  0
  9 10  2  0
  9 11  1  0
  2  7  1  0
 11  4  1  0
M  END
>  <name>  (235) 
Camphor

>  <Outcome>  (235) 
1

>  <SMILES>  (235) 
CC12CCC(CC1=O)C2(C)C

$$$$

     RDKit          2D

 32 33  0  0  0  0  0  0  0  0999 V2000
    3.2520   -2.8652    0.0000 C   0  0  0  0  0  0  0  0  0  0  0  0
    2.5854   -3.3513    0.0000 C   0  0  0  0  0  0  0  0  0  0  0  0
    2.2225   -2.6104    0.0000 C   0  0  0  0  0  0  0  0  0  0  0  0
    3.1799   -3.9233    0.0000 C   0  0  0  0  0  0  0  0  0  0  0  0
    2.9818   -4.7242    0.0000 C   0  0  0  0  0  0  0  0  0  0  0  0
    3.5762   -5.2962    0.0000 N   0  0  0  0  0  0  0  0  0  0  0  0
    3.3781   -6.0970    0.0000 C   0  0  0  0  0  0  0  0  0  0  0  0
    2.5854   -6.3259    0.0000 O   0  0  0  0  0  0  0  0  0  0  0  0
    4.3689   -5.0674    0.0000 C   0  0  0  0  0  0  0  0  0  0  0  0
    4.9633   -5.6394    0.0000 C   0  0  0  0  0  0  0  0  0  0  0  0
    5.7560   -5.4106    0.0000 C   0  0  0  0  0  0  0  0  0  0  0  0
    6.3505   -5.9826    0.0000 C   0  0  0  0  0  0  0  0  0  0  0  0
    7.1431   -5.7538    0.0000 C   0  0  0  0  0  0  0  0  0  0  0  0
    7.7376   -6.3259    0.0000 C   0  0  0  0  0  0  0  0  0  0  0  0
    8.5302   -6.0970    0.0000 N   0  0  0  0  0  0  0  0  0  0  0  0
    8.7284   -5.2962    0.0000 C   0  0  0  0  0  0  0  0  0  0  0  0
    9.5210   -5.0674    0.0000 O   0  0  0  0  0  0  0  0  0  0  0  0
    9.1247   -6.6691    0.0000 C   0  0  0  0  0  0  0  0  0  0  0  0
    9.9173   -6.4403    0.0000 C   0  0  0  0  0  0  0  0  0  0  0  0
   10.5118   -7.0123    0.0000 C   0  0  0  0  0  0  0  0  0  0  0  0
   10.9719   -6.3275    0.0000 C   0  0  0  0  0  0  0  0  0  0  0  0
   11.2661   -7.3465    0.0000 C   0  0  0  0  0  0  0  0  0  0  0  0
   10.3136   -7.8131    0.0000 N   0  0  0  0  0  0  0  0  0  0  0  0
    9.5210   -8.0420    0.0000 C   0  0  0  0  0  0  0  0  0  0  0  0
    9.8840   -8.7828    0.0000 C   0  0  0  0  0  0  0  0  0  0  0  0
    8.8544   -8.5281    0.0000 C   0  0  0  0  0  0  0  0  0  0  0  0
    8.9265   -7.4699    0.0000 C   0  0  0  0  0  0  0  0  0  0  0  0
    2.1891   -4.9530    0.0000 C   0  0  0  0  0  0  0  0  0  0  0  0
    1.5946   -4.3809    0.0000 C   0  0  0  0  0  0  0  0  0  0  0  0
    1.1345   -5.0657    0.0000 C   0  0  0  0  0  0  0  0  0  0  0  0
    0.8404   -4.0467    0.0000 C   0  0  0  0  0  0  0  0  0  0  0  0
    1.7928   -3.5801    0.0000 N   0  0  0  0  0  0  0  0  0  0  0  0
  1  2  1  0
  2  3  1  0
  2  4  1  0
  4  5  1  0
  5  6  1  0
  6  7  1  0
  7  8  2  0
  6  9  1  0
  9 10  1  0
 10 11  1  0
 11 12  1  0
 12 13  1  0
 13 14  1  0
 14 15  1  0
 15 16  1  0
 16 17  2  0
 15 18  1  0
 18 19  1  0
 19 20  1  0
 20 21  1  0
 20 22  1  0
 20 23  1  0
 23 24  1  0
 24 25  1  0
 24 26  1  0
 24 27  1  0
 18 27  1  0
  5 28  1  0
 28 29  1  0
 29 30  1  0
 29 31  1  0
 29 32  1  0
  2 32  1  0
M  END
>  <name>  (236) 
N-(2,2,6,6-tetramethylpiperidin-4-yl)-N-{6-[N-(2,2,6,6-tetramethylpiperidin-4-yl)formamido]hexyl}formamide

>  <Outcome>  (236) 
0

>  <SMILES>  (236) 
CC1(C)CC(N(C=O)CCCCCCN(C=O)C2CC(C)(C)NC(C)(C)C2)CC(C)(C)N1

$$$$

     RDKit          2D

  8  8  0  0  0  0  0  0  0  0999 V2000
    3.7500   -1.2990    0.0000 C   0  0  0  0  0  0  0  0  0  0  0  0
    3.0000    0.0000    0.0000 N   0  0  0  0  0  0  0  0  0  0  0  0
    1.5000    0.0000    0.0000 C   0  0  0  0  0  0  0  0  0  0  0  0
    0.7500   -1.2990    0.0000 C   0  0  0  0  0  0  0  0  0  0  0  0
   -0.7500   -1.2990    0.0000 C   0  0  0  0  0  0  0  0  0  0  0  0
   -1.5000    0.0000    0.0000 C   0  0  0  0  0  0  0  0  0  0  0  0
   -0.7500    1.2990    0.0000 C   0  0  0  0  0  0  0  0  0  0  0  0
    0.7500    1.2990    0.0000 C   0  0  0  0  0  0  0  0  0  0  0  0
  1  2  1  0
  2  3  1  0
  3  4  1  0
  4  5  1  0
  5  6  1  0
  6  7  1  0
  7  8  1  0
  8  3  1  0
M  END
>  <name>  (237) 
N-methylcyclohexanamine

>  <Outcome>  (237) 
2

>  <SMILES>  (237) 
CNC1CCCCC1

$$$$

     RDKit          2D

 15 16  0  0  0  0  0  0  0  0999 V2000
    1.5000    0.0000    0.0000 C   0  0  0  0  0  0  0  0  0  0  0  0
    0.7500   -1.2990    0.0000 C   0  0  0  0  0  0  0  0  0  0  0  0
   -0.7500   -1.2990    0.0000 C   0  0  0  0  0  0  0  0  0  0  0  0
   -1.5000    0.0000    0.0000 C   0  0  0  0  0  0  0  0  0  0  0  0
   -0.7500    1.2990    0.0000 C   0  0  0  0  0  0  0  0  0  0  0  0
    0.7500    1.2990    0.0000 C   0  0  0  0  0  0  0  0  0  0  0  0
   -3.0000    0.0000    0.0000 Si  0  0  0  0  0  4  0  0  0  0  0  0
   -4.5000    0.0000    0.0000 C   0  0  0  0  0  0  0  0  0  0  0  0
   -5.2500    1.2990    0.0000 C   0  0  0  0  0  0  0  0  0  0  0  0
   -6.7500    1.2990    0.0000 C   0  0  0  0  0  0  0  0  0  0  0  0
   -7.5000    0.0000    0.0000 C   0  0  0  0  0  0  0  0  0  0  0  0
   -6.7500   -1.2990    0.0000 C   0  0  0  0  0  0  0  0  0  0  0  0
   -5.2500   -1.2990    0.0000 C   0  0  0  0  0  0  0  0  0  0  0  0
   -3.0000    1.5000    0.0000 Cl  0  0  0  0  0  0  0  0  0  0  0  0
   -3.0000   -1.5000    0.0000 Cl  0  0  0  0  0  0  0  0  0  0  0  0
  1  2  2  0
  2  3  1  0
  3  4  2  0
  4  5  1  0
  5  6  2  0
  4  7  1  0
  7  8  1  0
  8  9  2  0
  9 10  1  0
 10 11  2  0
 11 12  1  0
 12 13  2  0
  7 14  1  0
  7 15  1  0
  6  1  1  0
 13  8  1  0
M  END
>  <name>  (238) 
dichloro(diphenyl)silane

>  <Outcome>  (238) 
2

>  <SMILES>  (238) 
Cl[Si](Cl)(c1ccccc1)c1ccccc1

$$$$

     RDKit          2D

 12 11  0  0  0  0  0  0  0  0999 V2000
    0.0000    0.0000    0.0000 C   0  0  0  0  0  0  0  0  0  0  0  0
    1.2990    0.7500    0.0000 C   0  0  0  0  0  0  0  0  0  0  0  0
    2.5981   -0.0000    0.0000 C   0  0  0  0  0  0  0  0  0  0  0  0
    3.8971    0.7500    0.0000 C   0  0  0  0  0  0  0  0  0  0  0  0
    5.1962   -0.0000    0.0000 C   0  0  0  0  0  0  0  0  0  0  0  0
    6.4952    0.7500    0.0000 C   0  0  0  0  0  0  0  0  0  0  0  0
    7.7942   -0.0000    0.0000 C   0  0  0  0  0  0  0  0  0  0  0  0
    9.0933    0.7500    0.0000 C   0  0  0  0  0  0  0  0  0  0  0  0
   10.3923   -0.0000    0.0000 Si  0  0  0  0  0  4  0  0  0  0  0  0
   11.6913   -0.7500    0.0000 Cl  0  0  0  0  0  0  0  0  0  0  0  0
   11.1423    1.2990    0.0000 Cl  0  0  0  0  0  0  0  0  0  0  0  0
    9.6423   -1.2990    0.0000 Cl  0  0  0  0  0  0  0  0  0  0  0  0
  1  2  1  0
  2  3  1  0
  3  4  1  0
  4  5  1  0
  5  6  1  0
  6  7  1  0
  7  8  1  0
  8  9  1  0
  9 10  1  0
  9 11  1  0
  9 12  1  0
M  END
>  <name>  (239) 
trichloro(octyl)silane

>  <Outcome>  (239) 
2

>  <SMILES>  (239) 
CCCCCCCC[Si](Cl)(Cl)Cl

$$$$

     RDKit          2D

 11 11  0  0  0  0  0  0  0  0999 V2000
   -0.8407    3.0653    0.0000 C   0  0  0  0  0  0  0  0  0  0  0  0
   -0.1263    2.6528    0.0000 N   0  0  0  0  0  0  0  0  0  0  0  0
   -0.5388    1.9383    0.0000 C   0  0  0  0  0  0  0  0  0  0  0  0
    0.2862    3.3673    0.0000 C   0  0  0  0  0  0  0  0  0  0  0  0
    0.5882    2.2403    0.0000 C   0  0  0  0  0  0  0  0  0  0  0  0
    0.5882    1.4153    0.0000 C   0  0  0  0  0  0  0  0  0  0  0  0
    1.3027    1.0028    0.0000 C   0  0  0  0  0  0  0  0  0  0  0  0
    1.3027    0.1778    0.0000 C   0  0  0  0  0  0  0  0  0  0  0  0
    0.5882   -0.2347    0.0000 C   0  0  0  0  0  0  0  0  0  0  0  0
   -0.1263    0.1778    0.0000 C   0  0  0  0  0  0  0  0  0  0  0  0
   -0.1263    1.0028    0.0000 C   0  0  0  0  0  0  0  0  0  0  0  0
  1  2  1  0
  2  3  1  0
  2  4  1  0
  2  5  1  0
  5  6  1  0
  6  7  2  0
  7  8  1  0
  8  9  2  0
  9 10  1  0
 10 11  2  0
  6 11  1  0
M  CHG  1   2   1
M  END
>  <name>  (240) 
N,N,N-trimethyl(phenyl)methanaminium chloride

>  <Outcome>  (240) 
1

>  <SMILES>  (240) 
C[N+](C)(C)Cc1ccccc1

$$$$

     RDKit          2D

  1  0  0  0  0  0  0  0  0  0999 V2000
    0.0000    0.0000    0.0000 Se  0  0  0  0  0 15  0  0  0  0  0  0
M  END
>  <name>  (241) 
selenium

>  <Outcome>  (241) 
2

>  <SMILES>  (241) 
[Se]

$$$$

     RDKit          2D

 10  4  0  0  0  0  0  0  0  0999 V2000
    0.0000    0.0000    0.0000 O   0  0  0  0  0  0  0  0  0  0  0  0
    1.0000    0.0000    0.0000 O   0  0  0  0  0  0  0  0  0  0  0  0
    0.0000    1.0000    0.0000 O   0  0  0  0  0  0  0  0  0  0  0  0
    2.0000    0.0000    0.0000 O   0  0  0  0  0  0  0  0  0  0  0  0
    0.0000    2.0000    0.0000 O   0  0  0  0  0  0  0  0  0  0  0  0
    3.0000    0.0000    0.0000 Cl  0  0  0  0  0  0  0  0  0  0  0  0
    4.2990    0.7500    0.0000 Sn  0  0  0  0  0  4  0  0  0  0  0  0
    5.5981    1.5000    0.0000 Cl  0  0  0  0  0  0  0  0  0  0  0  0
    5.0490   -0.5490    0.0000 Cl  0  0  0  0  0  0  0  0  0  0  0  0
    3.5490    2.0490    0.0000 Cl  0  0  0  0  0  0  0  0  0  0  0  0
  6  7  1  0
  7  8  1  0
  7  9  1  0
  7 10  1  0
M  END
>  <name>  (242) 
tetrachlorostannane;pentahydrate

>  <Outcome>  (242) 
2

>  <SMILES>  (242) 
Cl[Sn](Cl)(Cl)Cl.O.O.O.O.O

$$$$

     RDKit          2D

  3  2  0  0  0  0  0  0  0  0999 V2000
    2.2977   -2.0834    0.0000 Cl  0  0  0  0  0  0  0  0  0  0  0  0
    1.8852   -1.3689    0.0000 C   0  0  0  0  0  0  0  0  0  0  0  0
    1.0602   -1.3689    0.0000 Br  0  0  0  0  0  0  0  0  0  0  0  0
  1  2  1  0
  2  3  1  0
M  END
>  <name>  (243) 
bromo(chloro)methane

>  <Outcome>  (243) 
0

>  <SMILES>  (243) 
ClCBr

$$$$

     RDKit          2D

  6  5  0  0  0  0  0  0  0  0999 V2000
    2.5918   -1.5073    0.0000 C   0  0  0  0  0  0  0  0  0  0  0  0
    2.1793   -0.7928    0.0000 C   0  0  0  0  0  0  0  0  0  0  0  0
    2.5918   -0.0783    0.0000 C   0  0  0  0  0  0  0  0  0  0  0  0
    1.3543   -0.7928    0.0000 C   0  0  0  0  0  0  0  0  0  0  0  0
    0.9418   -0.0783    0.0000 C   0  0  0  0  0  0  0  0  0  0  0  0
    0.1168   -0.0783    0.0000 O   0  0  0  0  0  0  0  0  0  0  0  0
  1  2  1  0
  2  3  1  0
  2  4  1  0
  4  5  1  0
  5  6  2  0
M  END
>  <name>  (244) 
3-methylbutanal

>  <Outcome>  (244) 
0

>  <SMILES>  (244) 
CC(C)CC=O

$$$$

     RDKit          2D

 10  9  0  0  0  0  0  0  0  0999 V2000
    3.3235    0.2295    0.0000 C   0  0  0  0  0  0  0  0  0  0  0  0
    2.6090    0.6420    0.0000 C   0  0  0  0  0  0  0  0  0  0  0  0
    1.8946    0.2295    0.0000 C   0  0  0  0  0  0  0  0  0  0  0  0
    1.1801    0.6420    0.0000 Si  0  0  0  0  0  4  0  0  0  0  0  0
    0.4656    1.0545    0.0000 O   0  0  0  0  0  0  0  0  0  0  0  0
   -0.2488    0.6420    0.0000 C   0  0  0  0  0  0  0  0  0  0  0  0
    1.5926    1.3565    0.0000 O   0  0  0  0  0  0  0  0  0  0  0  0
    1.1801    2.0709    0.0000 C   0  0  0  0  0  0  0  0  0  0  0  0
    0.7676   -0.0725    0.0000 O   0  0  0  0  0  0  0  0  0  0  0  0
   -0.0574   -0.0725    0.0000 C   0  0  0  0  0  0  0  0  0  0  0  0
  1  2  1  0
  2  3  1  0
  3  4  1  0
  4  5  1  0
  5  6  1  0
  4  7  1  0
  7  8  1  0
  4  9  1  0
  9 10  1  0
M  END
>  <name>  (245) 
trimethoxy(propyl)silane

>  <Outcome>  (245) 
0

>  <SMILES>  (245) 
CCC[Si](OC)(OC)OC

$$$$

     RDKit          2D

  5  4  0  0  0  0  0  0  0  0999 V2000
    1.2415    0.7145    0.0000 Cl  0  0  0  0  0  0  0  0  0  0  0  0
    0.8290   -0.0000    0.0000 C   0  0  0  0  0  0  0  0  0  0  0  0
    0.0040   -0.0000    0.0000 C   0  0  0  0  0  0  0  0  0  0  0  0
   -0.4085   -0.7145    0.0000 C   0  0  0  0  0  0  0  0  0  0  0  0
    0.0040   -1.4289    0.0000 Cl  0  0  0  0  0  0  0  0  0  0  0  0
  2  1  1  0
  2  3  2  3
  3  4  1  0
  4  5  1  0
M  END
>  <name>  (246) 
1,3-dichloroprop-1-ene

>  <Outcome>  (246) 
1

>  <SMILES>  (246) 
ClC=CCCl

$$$$

     RDKit          2D

  8  7  0  0  0  0  0  0  0  0999 V2000
    1.2981    0.1436    0.0000 C   0  0  0  0  0  0  0  0  0  0  0  0
    0.4731    0.1436    0.0000 S   0  0  0  0  0  0  0  0  0  0  0  0
    0.0606   -0.5709    0.0000 C   0  0  0  0  0  0  0  0  0  0  0  0
   -0.6539   -0.1584    0.0000 C   0  0  0  0  0  0  0  0  0  0  0  0
    0.7750   -0.9834    0.0000 C   0  0  0  0  0  0  0  0  0  0  0  0
   -0.3519   -1.2853    0.0000 C   0  0  0  0  0  0  0  0  0  0  0  0
   -1.1769   -1.2853    0.0000 N   0  0  0  0  0  0  0  0  0  0  0  0
   -1.5894   -1.9998    0.0000 O   0  0  0  0  0  0  0  0  0  0  0  0
  1  2  1  0
  2  3  1  0
  3  4  1  0
  3  5  1  0
  3  6  1  0
  6  7  2  3
  7  8  1  0
M  END
>  <name>  (247) 
Aldicarb oxime

>  <Outcome>  (247) 
1

>  <SMILES>  (247) 
CSC(C)(C)C=NO

$$$$

     RDKit          2D

  4  3  0  0  0  0  0  0  0  0999 V2000
    0.4830    0.4830    0.0000 C   0  0  0  0  0  0  0  0  0  0  0  0
    0.0705   -0.2315    0.0000 N   0  0  0  0  0  0  0  0  0  0  0  0
    0.4830   -0.9460    0.0000 O   0  0  0  0  0  0  0  0  0  0  0  0
   -0.7545   -0.2315    0.0000 O   0  0  0  0  0  0  0  0  0  0  0  0
  1  2  1  0
  2  3  1  0
  2  4  2  0
M  CHG  2   2   1   3  -1
M  END
>  <name>  (248) 
Nitromethane

>  <Outcome>  (248) 
1

>  <SMILES>  (248) 
C[N+](=O)[O-]

$$$$

     RDKit          2D

 20 19  0  0  0  0  0  0  0  0999 V2000
   -2.4498   -1.6672    0.0000 C   0  0  0  0  0  0  0  0  0  0  0  0
   -1.7353   -1.2547    0.0000 C   0  0  0  0  0  0  0  0  0  0  0  0
   -1.0209   -1.6672    0.0000 C   0  0  0  0  0  0  0  0  0  0  0  0
   -0.3064   -1.2547    0.0000 C   0  0  0  0  0  0  0  0  0  0  0  0
    0.4081   -1.6672    0.0000 C   0  0  0  0  0  0  0  0  0  0  0  0
    1.1225   -1.2547    0.0000 C   0  0  0  0  0  0  0  0  0  0  0  0
    1.8370   -1.6672    0.0000 C   0  0  0  0  0  0  0  0  0  0  0  0
    2.5515   -1.2547    0.0000 C   0  0  0  0  0  0  0  0  0  0  0  0
    3.2660   -1.6672    0.0000 C   0  0  0  0  0  0  0  0  0  0  0  0
    3.2660   -2.4922    0.0000 C   0  0  0  0  0  0  0  0  0  0  0  0
    3.9804   -1.2547    0.0000 C   0  0  0  0  0  0  0  0  0  0  0  0
    3.9804   -0.4297    0.0000 C   0  0  0  0  0  0  0  0  0  0  0  0
    4.6949   -1.6672    0.0000 C   0  0  0  0  0  0  0  0  0  0  0  0
    5.4094   -1.2547    0.0000 C   0  0  0  0  0  0  0  0  0  0  0  0
    6.1238   -1.6672    0.0000 C   0  0  0  0  0  0  0  0  0  0  0  0
    6.8383   -1.2547    0.0000 C   0  0  0  0  0  0  0  0  0  0  0  0
    7.5528   -1.6672    0.0000 C   0  0  0  0  0  0  0  0  0  0  0  0
    8.2673   -1.2547    0.0000 C   0  0  0  0  0  0  0  0  0  0  0  0
    8.9817   -1.6672    0.0000 C   0  0  0  0  0  0  0  0  0  0  0  0
    9.6962   -1.2547    0.0000 C   0  0  0  0  0  0  0  0  0  0  0  0
  1  2  1  0
  2  3  1  0
  3  4  1  0
  4  5  1  0
  5  6  1  0
  6  7  1  0
  7  8  1  0
  8  9  1  0
  9 10  1  0
  9 11  1  0
 11 12  1  0
 11 13  1  0
 13 14  1  0
 14 15  1  0
 15 16  1  0
 16 17  1  0
 17 18  1  0
 18 19  1  0
 19 20  1  0
M  END
>  <name>  (249) 
1-Decene, dimer, hydrogenated

>  <Outcome>  (249) 
1

>  <SMILES>  (249) 
CCCCCCCCC(C)C(C)CCCCCCCC

$$$$

     RDKit          2D

 16 15  0  0  0  0  0  0  0  0999 V2000
    5.4237    4.0861    0.0000 C   0  0  0  0  0  0  0  0  0  0  0  0
    6.1382    3.6736    0.0000 C   0  0  0  0  0  0  0  0  0  0  0  0
    6.8527    4.0861    0.0000 C   0  0  0  0  0  0  0  0  0  0  0  0
    6.8527    4.9111    0.0000 O   0  0  0  0  0  0  0  0  0  0  0  0
    7.5671    3.6736    0.0000 O   0  0  0  0  0  0  0  0  0  0  0  0
    8.2816    4.0861    0.0000 C   0  0  0  0  0  0  0  0  0  0  0  0
    8.9961    3.6736    0.0000 C   0  0  0  0  0  0  0  0  0  0  0  0
    9.7105    4.0861    0.0000 C   0  0  0  0  0  0  0  0  0  0  0  0
    9.7105    4.9111    0.0000 C   0  0  0  0  0  0  0  0  0  0  0  0
   10.4250    3.6736    0.0000 C   0  0  0  0  0  0  0  0  0  0  0  0
   11.1395    4.0861    0.0000 C   0  0  0  0  0  0  0  0  0  0  0  0
   11.8540    3.6736    0.0000 O   0  0  0  0  0  0  0  0  0  0  0  0
   12.5684    4.0861    0.0000 C   0  0  0  0  0  0  0  0  0  0  0  0
   12.5684    4.9111    0.0000 O   0  0  0  0  0  0  0  0  0  0  0  0
   13.2829    3.6736    0.0000 C   0  0  0  0  0  0  0  0  0  0  0  0
   13.9974    4.0861    0.0000 C   0  0  0  0  0  0  0  0  0  0  0  0
  1  2  2  0
  2  3  1  0
  3  4  2  0
  3  5  1  0
  5  6  1  0
  6  7  1  0
  7  8  1  0
  8  9  1  0
  8 10  1  0
 10 11  1  0
 11 12  1  0
 12 13  1  0
 13 14  2  0
 13 15  1  0
 15 16  2  0
M  END
>  <name>  (250) 
3-methyl-5-(prop-2-enoyloxy)pentyl prop-2-enoate

>  <Outcome>  (250) 
1

>  <SMILES>  (250) 
C=CC(=O)OCCC(C)CCOC(=O)C=C

$$$$

     RDKit          2D

  7  6  0  0  0  0  0  0  0  0999 V2000
    1.7590    1.6178    0.0000 C   0  0  0  0  0  0  0  0  0  0  0  0
    1.3465    0.9033    0.0000 C   0  0  0  0  0  0  0  0  0  0  0  0
    0.6320    1.3158    0.0000 C   0  0  0  0  0  0  0  0  0  0  0  0
    2.0610    0.4908    0.0000 C   0  0  0  0  0  0  0  0  0  0  0  0
    0.9340    0.1889    0.0000 N   0  0  0  0  0  0  0  0  0  0  0  0
    0.1090    0.1889    0.0000 C   0  0  0  0  0  0  0  0  0  0  0  0
   -0.7160    0.1889    0.0000 O   0  0  0  0  0  0  0  0  0  0  0  0
  1  2  1  0
  2  3  1  0
  2  4  1  0
  2  5  1  0
  5  6  2  0
  6  7  2  0
M  END
>  <name>  (251) 
2-isocyanato-2-methylpropane

>  <Outcome>  (251) 
1

>  <SMILES>  (251) 
CC(C)(C)N=C=O

$$$$

     RDKit          2D

  4  3  0  0  0  0  0  0  0  0999 V2000
    1.2375    0.7145    0.0000 C   0  0  0  0  0  0  0  0  0  0  0  0
    0.8250    0.0000    0.0000 C   0  0  0  0  0  0  0  0  0  0  0  0
    1.2375   -0.7145    0.0000 Cl  0  0  0  0  0  0  0  0  0  0  0  0
   -0.0000    0.0000    0.0000 Cl  0  0  0  0  0  0  0  0  0  0  0  0
  1  2  2  0
  2  3  1  0
  2  4  1  0
M  END
>  <name>  (252) 
1,1-dichloroethene

>  <Outcome>  (252) 
1

>  <SMILES>  (252) 
C=C(Cl)Cl

$$$$

     RDKit          2D

 17 16  0  0  0  0  0  0  0  0999 V2000
    5.7356    0.6500    0.0000 C   0  0  0  0  0  0  0  0  0  0  0  0
    5.0212    1.0625    0.0000 C   0  0  0  0  0  0  0  0  0  0  0  0
    4.3067    0.6500    0.0000 C   0  0  0  0  0  0  0  0  0  0  0  0
    3.8942    1.3645    0.0000 C   0  0  0  0  0  0  0  0  0  0  0  0
    3.0692    1.3645    0.0000 O   0  0  0  0  0  0  0  0  0  0  0  0
    4.7192   -0.0645    0.0000 C   0  0  0  0  0  0  0  0  0  0  0  0
    4.3067   -0.7789    0.0000 O   0  0  0  0  0  0  0  0  0  0  0  0
    3.5922    0.2375    0.0000 C   0  0  0  0  0  0  0  0  0  0  0  0
    2.8777    0.6500    0.0000 O   0  0  0  0  0  0  0  0  0  0  0  0
    2.1633    0.2375    0.0000 C   0  0  0  0  0  0  0  0  0  0  0  0
    1.4488    0.6500    0.0000 C   0  0  0  0  0  0  0  0  0  0  0  0
    0.7343    1.0625    0.0000 C   0  0  0  0  0  0  0  0  0  0  0  0
    0.0199    0.6500    0.0000 C   0  0  0  0  0  0  0  0  0  0  0  0
    1.8613    1.3645    0.0000 C   0  0  0  0  0  0  0  0  0  0  0  0
    1.4488    2.0789    0.0000 O   0  0  0  0  0  0  0  0  0  0  0  0
    1.0363   -0.0645    0.0000 C   0  0  0  0  0  0  0  0  0  0  0  0
    0.2113   -0.0645    0.0000 O   0  0  0  0  0  0  0  0  0  0  0  0
  1  2  1  0
  2  3  1  0
  3  4  1  0
  4  5  1  0
  3  6  1  0
  6  7  1  0
  3  8  1  0
  8  9  1  0
  9 10  1  0
 10 11  1  0
 11 12  1  0
 12 13  1  0
 11 14  1  0
 14 15  1  0
 11 16  1  0
 16 17  1  0
M  END
>  <name>  (253) 
2-ethyl-2-{[2-ethyl-3-hydroxy-2-(hydroxymethyl)propoxy]methyl}propane-1,3-diol

>  <Outcome>  (253) 
0

>  <SMILES>  (253) 
CCC(CO)(CO)COCC(CC)(CO)CO

$$$$

     RDKit          2D

  4  3  0  0  0  0  0  0  0  0999 V2000
    1.2375    0.7145    0.0000 C   0  0  0  0  0  0  0  0  0  0  0  0
    0.8250   -0.0000    0.0000 C   0  0  0  0  0  0  0  0  0  0  0  0
    1.2375   -0.7145    0.0000 C   0  0  0  0  0  0  0  0  0  0  0  0
   -0.0000   -0.0000    0.0000 O   0  0  0  0  0  0  0  0  0  0  0  0
  1  2  1  0
  2  3  1  0
  2  4  2  0
M  END
>  <name>  (254) 
propan-2-one

>  <Outcome>  (254) 
0

>  <SMILES>  (254) 
CC(C)=O

$$$$

     RDKit          2D

  4  3  0  0  0  0  0  0  0  0999 V2000
    2.0625   -0.7145    0.0000 O   0  0  0  0  0  0  0  0  0  0  0  0
    1.2375   -0.7145    0.0000 C   0  0  0  0  0  0  0  0  0  0  0  0
    0.8250   -0.0000    0.0000 C   0  0  0  0  0  0  0  0  0  0  0  0
    0.0000   -0.0000    0.0000 O   0  0  0  0  0  0  0  0  0  0  0  0
  1  2  2  0
  2  3  1  0
  3  4  2  0
M  END
>  <name>  (255) 
oxaldehyde

>  <Outcome>  (255) 
1

>  <SMILES>  (255) 
O=CC=O

$$$$

     RDKit          2D

 19 20  0  0  0  0  0  0  0  0999 V2000
   -2.0596    0.4307    0.0000 O   0  0  0  0  0  0  0  0  0  0  0  0
   -1.3452    0.0182    0.0000 C   0  0  0  0  0  0  0  0  0  0  0  0
   -0.6307   -0.3943    0.0000 N   0  0  0  0  0  0  0  0  0  0  0  0
   -0.6307   -1.2193    0.0000 C   0  0  0  0  0  0  0  0  0  0  0  0
    0.0838   -1.6318    0.0000 C   0  0  0  0  0  0  0  0  0  0  0  0
    0.0838   -2.4568    0.0000 C   0  0  0  0  0  0  0  0  0  0  0  0
   -0.6307   -2.8693    0.0000 C   0  0  0  0  0  0  0  0  0  0  0  0
   -0.6307   -3.6943    0.0000 C   0  0  0  0  0  0  0  0  0  0  0  0
    0.0838   -4.1068    0.0000 C   0  0  0  0  0  0  0  0  0  0  0  0
    0.7982   -3.6943    0.0000 C   0  0  0  0  0  0  0  0  0  0  0  0
    1.5127   -4.1068    0.0000 C   0  0  0  0  0  0  0  0  0  0  0  0
    1.5127   -4.9318    0.0000 C   0  0  0  0  0  0  0  0  0  0  0  0
    0.7982   -5.3443    0.0000 C   0  0  0  0  0  0  0  0  0  0  0  0
    0.0838   -4.9318    0.0000 C   0  0  0  0  0  0  0  0  0  0  0  0
   -0.6307   -5.3443    0.0000 N   0  0  0  0  0  0  0  0  0  0  0  0
   -0.6307   -6.1693    0.0000 C   0  0  0  0  0  0  0  0  0  0  0  0
   -0.6307   -6.9943    0.0000 O   0  0  0  0  0  0  0  0  0  0  0  0
   -1.3452   -2.4568    0.0000 C   0  0  0  0  0  0  0  0  0  0  0  0
   -1.3452   -1.6318    0.0000 C   0  0  0  0  0  0  0  0  0  0  0  0
  1  2  2  0
  2  3  2  0
  3  4  1  0
  4  5  2  0
  5  6  1  0
  6  7  2  0
  7  8  1  0
  8  9  1  0
  9 10  2  0
 10 11  1  0
 11 12  2  0
 12 13  1  0
 13 14  2  0
  9 14  1  0
 14 15  1  0
 15 16  2  0
 16 17  2  0
  7 18  1  0
 18 19  2  0
  4 19  1  0
M  END
>  <name>  (256) 
1-isocyanato-2-(4-isocyanatobenzyl)benzene

>  <Outcome>  (256) 
1

>  <SMILES>  (256) 
O=C=Nc1ccc(Cc2ccccc2N=C=O)cc1

$$$$

     RDKit          2D

  9  9  0  0  0  0  0  0  0  0999 V2000
   -0.0000    2.4750    0.0000 O   0  0  0  0  0  0  0  0  0  0  0  0
    0.7145    2.0625    0.0000 C   0  0  0  0  0  0  0  0  0  0  0  0
    1.4289    2.4750    0.0000 O   0  0  0  0  0  0  0  0  0  0  0  0
    0.7145    1.2375    0.0000 C   0  0  0  0  0  0  0  0  0  0  0  0
    1.4289    0.8250    0.0000 C   0  0  0  0  0  0  0  0  0  0  0  0
    1.4289    0.0000    0.0000 C   0  0  0  0  0  0  0  0  0  0  0  0
    0.7145   -0.4125    0.0000 C   0  0  0  0  0  0  0  0  0  0  0  0
   -0.0000    0.0000    0.0000 C   0  0  0  0  0  0  0  0  0  0  0  0
   -0.0000    0.8250    0.0000 C   0  0  0  0  0  0  0  0  0  0  0  0
  1  2  2  0
  2  3  1  0
  2  4  1  0
  4  5  2  0
  5  6  1  0
  6  7  2  0
  7  8  1  0
  8  9  2  0
  4  9  1  0
M  END
>  <name>  (257) 
benzoic acid

>  <Outcome>  (257) 
0

>  <SMILES>  (257) 
O=C(O)c1ccccc1

$$$$

     RDKit          2D

  2  1  0  0  0  0  0  0  0  0999 V2000
    0.8250    0.0000    0.0000 C   0  0  0  0  0  0  0  0  0  0  0  0
   -0.0000    0.0000    0.0000 N   0  0  0  0  0  0  0  0  0  0  0  0
  1  2  1  0
M  END
>  <name>  (258) 
methanamine

>  <Outcome>  (258) 
1

>  <SMILES>  (258) 
CN

$$$$

     RDKit          2D

  6  5  0  0  0  0  0  0  0  0999 V2000
    0.0000    0.0000    0.0000 C   0  0  0  0  0  0  0  0  0  0  0  0
    1.2990    0.7500    0.0000 C   0  0  0  0  0  0  0  0  0  0  0  0
    2.5981   -0.0000    0.0000 Cl  0  0  0  0  0  0  0  0  0  0  0  0
    1.2990    2.2500    0.0000 Cl  0  0  0  0  0  0  0  0  0  0  0  0
   -1.2990    0.7500    0.0000 Cl  0  0  0  0  0  0  0  0  0  0  0  0
   -0.0000   -1.5000    0.0000 Cl  0  0  0  0  0  0  0  0  0  0  0  0
  1  2  2  0
  2  3  1  0
  2  4  1  0
  1  5  1  0
  1  6  1  0
M  END
>  <name>  (259) 
1,1,2,2-tetrachloroethene

>  <Outcome>  (259) 
2

>  <SMILES>  (259) 
ClC(Cl)=C(Cl)Cl

$$$$

     RDKit          2D

  4  3  0  0  0  0  0  0  0  0999 V2000
    1.2375    0.7145    0.0000 F   0  0  0  0  0  0  0  0  0  0  0  0
    0.8250   -0.0000    0.0000 C   0  0  0  0  0  0  0  0  0  0  0  0
    1.2375   -0.7145    0.0000 F   0  0  0  0  0  0  0  0  0  0  0  0
    0.0000   -0.0000    0.0000 F   0  0  0  0  0  0  0  0  0  0  0  0
  1  2  1  0
  2  3  1  0
  2  4  1  0
M  END
>  <name>  (260) 
trifluoromethane

>  <Outcome>  (260) 
0

>  <SMILES>  (260) 
FC(F)F

$$$$

     RDKit          2D

 10  9  0  0  0  0  0  0  0  0999 V2000
    0.0000    0.0000    0.0000 C   0  0  0  0  0  0  0  0  0  0  0  0
    1.2990    0.7500    0.0000 C   0  0  0  0  0  0  0  0  0  0  0  0
    2.5981   -0.0000    0.0000 C   0  0  0  0  0  0  0  0  0  0  0  0
    1.2990    2.2500    0.0000 C   0  0  0  0  0  0  0  0  0  0  0  0
   -0.0000    3.0000    0.0000 O   0  0  0  0  0  0  0  0  0  0  0  0
    2.5981    3.0000    0.0000 O   0  0  0  0  0  0  0  0  0  0  0  0
    2.5981    4.5000    0.0000 C   0  0  0  0  0  0  0  0  0  0  0  0
    4.0981    4.5000    0.0000 C   0  0  0  0  0  0  0  0  0  0  0  0
    1.0981    4.5000    0.0000 C   0  0  0  0  0  0  0  0  0  0  0  0
    2.5981    6.0000    0.0000 C   0  0  0  0  0  0  0  0  0  0  0  0
  1  2  1  0
  2  3  2  0
  2  4  1  0
  4  5  2  0
  4  6  1  0
  6  7  1  0
  7  8  1  0
  7  9  1  0
  7 10  1  0
M  END
>  <name>  (261) 
tert-butyl 2-methylprop-2-enoate

>  <Outcome>  (261) 
2

>  <SMILES>  (261) 
C=C(C)C(=O)OC(C)(C)C

$$$$

     RDKit          2D

 22 21  0  0  0  0  0  0  0  0999 V2000
    9.7086    6.4308    0.0000 C   0  0  0  0  0  0  0  0  0  0  0  0
   10.4230    6.8433    0.0000 C   0  0  0  0  0  0  0  0  0  0  0  0
   11.1375    6.4308    0.0000 C   0  0  0  0  0  0  0  0  0  0  0  0
   11.8520    6.8433    0.0000 C   0  0  0  0  0  0  0  0  0  0  0  0
   12.5664    6.4308    0.0000 C   0  0  0  0  0  0  0  0  0  0  0  0
   13.2809    6.8433    0.0000 C   0  0  0  0  0  0  0  0  0  0  0  0
   13.9954    6.4308    0.0000 C   0  0  0  0  0  0  0  0  0  0  0  0
   14.7099    6.8433    0.0000 C   0  0  0  0  0  0  0  0  0  0  0  0
   15.4243    6.4308    0.0000 C   0  0  0  0  0  0  0  0  0  0  0  0
   16.1388    6.8433    0.0000 C   0  0  0  0  0  0  0  0  0  0  0  0
   16.8533    6.4308    0.0000 C   0  0  0  0  0  0  0  0  0  0  0  0
   17.5677    6.8433    0.0000 C   0  0  0  0  0  0  0  0  0  0  0  0
   18.2822    6.4308    0.0000 C   0  0  0  0  0  0  0  0  0  0  0  0
   18.9967    6.8433    0.0000 C   0  0  0  0  0  0  0  0  0  0  0  0
   19.7112    6.4308    0.0000 C   0  0  0  0  0  0  0  0  0  0  0  0
   20.4256    6.8433    0.0000 C   0  0  0  0  0  0  0  0  0  0  0  0
   21.1401    6.4308    0.0000 C   0  0  0  0  0  0  0  0  0  0  0  0
   21.8546    6.8433    0.0000 C   0  0  0  0  0  0  0  0  0  0  0  0
   22.5690    6.4308    0.0000 C   0  0  0  0  0  0  0  0  0  0  0  0
   23.2835    6.8433    0.0000 C   0  0  0  0  0  0  0  0  0  0  0  0
   23.9980    6.4308    0.0000 C   0  0  0  0  0  0  0  0  0  0  0  0
   24.7124    6.8433    0.0000 C   0  0  0  0  0  0  0  0  0  0  0  0
  1  2  2  0
  2  3  1  0
  3  4  1  0
  4  5  1  0
  5  6  1  0
  6  7  1  0
  7  8  1  0
  8  9  1  0
  9 10  1  0
 10 11  1  0
 11 12  1  0
 12 13  1  0
 13 14  1  0
 14 15  1  0
 15 16  1  0
 16 17  1  0
 17 18  1  0
 18 19  1  0
 19 20  1  0
 20 21  1  0
 21 22  1  0
M  END
>  <name>  (262) 
Alkenes, C20-24 ??-

>  <Outcome>  (262) 
0

>  <SMILES>  (262) 
C=CCCCCCCCCCCCCCCCCCCCC

$$$$

     RDKit          2D

  7  6  0  0  0  0  0  0  0  0999 V2000
    3.3012   -1.4270    0.0000 C   0  0  0  0  0  0  0  0  0  0  0  0
    2.4762   -1.4270    0.0000 C   0  0  0  0  0  0  0  0  0  0  0  0
    2.0637   -0.7126    0.0000 C   0  0  0  0  0  0  0  0  0  0  0  0
    1.2387   -0.7126    0.0000 C   0  0  0  0  0  0  0  0  0  0  0  0
    0.8262    0.0019    0.0000 N   0  0  0  0  0  0  0  0  0  0  0  0
    0.0012    0.0019    0.0000 C   0  0  0  0  0  0  0  0  0  0  0  0
   -0.8238    0.0019    0.0000 O   0  0  0  0  0  0  0  0  0  0  0  0
  1  2  1  0
  2  3  1  0
  3  4  1  0
  4  5  1  0
  5  6  2  0
  6  7  2  0
M  END
>  <name>  (263) 
1-isocyanatobutane

>  <Outcome>  (263) 
1

>  <SMILES>  (263) 
CCCCN=C=O

$$$$

     RDKit          2D

  6  5  0  0  0  0  0  0  0  0999 V2000
    0.8250    1.4289    0.0000 C   0  0  0  0  0  0  0  0  0  0  0  0
    1.2375    0.7145    0.0000 N   0  0  0  0  0  0  0  0  0  0  0  0
    2.0625    0.7145    0.0000 C   0  0  0  0  0  0  0  0  0  0  0  0
    0.8250   -0.0000    0.0000 C   0  0  0  0  0  0  0  0  0  0  0  0
    1.2375   -0.7145    0.0000 S   0  0  0  0  0  0  0  0  0  0  0  0
   -0.0000   -0.0000    0.0000 S   0  0  0  0  0  0  0  0  0  0  0  0
  1  2  1  0
  2  3  1  0
  2  4  1  0
  4  5  2  0
  4  6  1  0
M  END
>  <name>  (264) 
zinc bis(dimethyldithiocarbamate)

>  <Outcome>  (264) 
1

>  <SMILES>  (264) 
CN(C)C(=S)S

$$$$

     RDKit          2D

 23 24  0  0  0  0  0  0  0  0999 V2000
    3.0000   -1.5000    0.0000 C   0  0  0  0  0  0  0  0  0  0  0  0
    3.0000    0.0000    0.0000 C   0  0  0  0  0  0  0  0  0  0  0  0
    3.0000    1.5000    0.0000 C   0  0  0  0  0  0  0  0  0  0  0  0
    4.5000    0.0000    0.0000 C   0  0  0  0  0  0  0  0  0  0  0  0
    1.5000    0.0000    0.0000 C   0  0  0  0  0  0  0  0  0  0  0  0
    0.7500   -1.2990    0.0000 C   0  0  0  0  0  0  0  0  0  0  0  0
   -0.7500   -1.2990    0.0000 C   0  0  0  0  0  0  0  0  0  0  0  0
   -1.5000    0.0000    0.0000 C   0  0  0  0  0  0  0  0  0  0  0  0
   -0.7500    1.2990    0.0000 C   0  0  0  0  0  0  0  0  0  0  0  0
    0.7500    1.2990    0.0000 C   0  0  0  0  0  0  0  0  0  0  0  0
   -3.0000    0.0000    0.0000 C   0  0  0  0  0  0  0  0  0  0  0  0
   -3.7500   -1.2990    0.0000 O   0  0  0  0  0  0  0  0  0  0  0  0
   -3.7500    1.2990    0.0000 C   0  0  0  0  0  0  0  0  0  0  0  0
   -5.2500    1.2990    0.0000 C   0  0  0  0  0  0  0  0  0  0  0  0
   -6.0000    0.0000    0.0000 O   0  0  0  0  0  0  0  0  0  0  0  0
   -6.0000    2.5981    0.0000 C   0  0  0  0  0  0  0  0  0  0  0  0
   -5.2500    3.8971    0.0000 C   0  0  0  0  0  0  0  0  0  0  0  0
   -6.0000    5.1962    0.0000 C   0  0  0  0  0  0  0  0  0  0  0  0
   -7.5000    5.1962    0.0000 C   0  0  0  0  0  0  0  0  0  0  0  0
   -8.2500    3.8971    0.0000 C   0  0  0  0  0  0  0  0  0  0  0  0
   -7.5000    2.5981    0.0000 C   0  0  0  0  0  0  0  0  0  0  0  0
   -8.2500    6.4952    0.0000 O   0  0  0  0  0  0  0  0  0  0  0  0
   -7.5000    7.7942    0.0000 C   0  0  0  0  0  0  0  0  0  0  0  0
  1  2  1  0
  2  3  1  0
  2  4  1  0
  2  5  1  0
  5  6  2  0
  6  7  1  0
  7  8  2  0
  8  9  1  0
  9 10  2  0
  8 11  1  0
 11 12  2  0
 11 13  1  0
 13 14  1  0
 14 15  2  0
 14 16  1  0
 16 17  2  0
 17 18  1  0
 18 19  2  0
 19 20  1  0
 20 21  2  0
 19 22  1  0
 22 23  1  0
 10  5  1  0
 21 16  1  0
M  END
>  <name>  (265) 
1-(4-tert-butylphenyl)-3-(4-methoxyphenyl)propane-1,3-dione

>  <Outcome>  (265) 
2

>  <SMILES>  (265) 
COc1ccc(C(=O)CC(=O)c2ccc(C(C)(C)C)cc2)cc1

$$$$

     RDKit          2D

 18 19  0  0  0  0  0  0  0  0999 V2000
   -0.0518   -1.5966    0.0000 C   0  0  0  0  0  0  0  0  0  0  0  0
    0.6627   -1.1841    0.0000 C   0  0  0  0  0  0  0  0  0  0  0  0
    1.3772   -1.5966    0.0000 C   0  0  0  0  0  0  0  0  0  0  0  0
    1.3772   -2.4216    0.0000 C   0  0  0  0  0  0  0  0  0  0  0  0
    2.2022   -2.4216    0.0000 C   0  0  0  0  0  0  0  0  0  0  0  0
    0.5522   -2.4216    0.0000 C   0  0  0  0  0  0  0  0  0  0  0  0
    1.3772   -3.2466    0.0000 C   0  0  0  0  0  0  0  0  0  0  0  0
    2.0916   -3.6591    0.0000 C   0  0  0  0  0  0  0  0  0  0  0  0
    2.0916   -4.4841    0.0000 C   0  0  0  0  0  0  0  0  0  0  0  0
    1.3772   -4.8966    0.0000 C   0  0  0  0  0  0  0  0  0  0  0  0
    0.6627   -4.4841    0.0000 C   0  0  0  0  0  0  0  0  0  0  0  0
    0.6627   -3.6591    0.0000 C   0  0  0  0  0  0  0  0  0  0  0  0
    0.6627   -0.3591    0.0000 C   0  0  0  0  0  0  0  0  0  0  0  0
   -0.0518    0.0534    0.0000 C   0  0  0  0  0  0  0  0  0  0  0  0
   -0.0518    0.8784    0.0000 C   0  0  0  0  0  0  0  0  0  0  0  0
    0.6627    1.2909    0.0000 C   0  0  0  0  0  0  0  0  0  0  0  0
    1.3772    0.8784    0.0000 C   0  0  0  0  0  0  0  0  0  0  0  0
    1.3772    0.0534    0.0000 C   0  0  0  0  0  0  0  0  0  0  0  0
  1  2  2  0
  2  3  1  0
  3  4  1  0
  4  5  1  0
  4  6  1  0
  4  7  1  0
  7  8  2  0
  8  9  1  0
  9 10  2  0
 10 11  1  0
 11 12  2  0
  7 12  1  0
  2 13  1  0
 13 14  2  0
 14 15  1  0
 15 16  2  0
 16 17  1  0
 17 18  2  0
 13 18  1  0
M  END
>  <name>  (266) 
(4-methyl-4-phenylpent-1-en-2-yl)benzene

>  <Outcome>  (266) 
0

>  <SMILES>  (266) 
C=C(CC(C)(C)c1ccccc1)c1ccccc1

$$$$

     RDKit          2D

  6  5  0  0  0  0  0  0  0  0999 V2000
    0.0000    0.0000    0.0000 C   0  0  0  0  0  0  0  0  0  0  0  0
    1.2990    0.7500    0.0000 C   0  0  0  0  0  0  0  0  0  0  0  0
    2.5981   -0.0000    0.0000 Cl  0  0  0  0  0  0  0  0  0  0  0  0
   -1.2990    0.7500    0.0000 C   0  0  0  0  0  0  0  0  0  0  0  0
   -2.5981    0.0000    0.0000 O   0  0  0  0  0  0  0  0  0  0  0  0
   -1.2990    2.2500    0.0000 Cl  0  0  0  0  0  0  0  0  0  0  0  0
  1  2  1  0
  2  3  1  0
  1  4  1  0
  4  5  2  0
  4  6  1  0
M  END
>  <name>  (267) 
3-chloropropanoyl chloride

>  <Outcome>  (267) 
2

>  <SMILES>  (267) 
O=C(Cl)CCCl

$$$$

     RDKit          2D

 10 10  0  0  0  0  0  0  0  0999 V2000
    0.0086    2.5852    0.0000 N   0  0  0  0  0  0  0  0  0  0  0  0
    0.7231    2.1727    0.0000 C   0  0  0  0  0  0  0  0  0  0  0  0
    1.4375    2.5852    0.0000 O   0  0  0  0  0  0  0  0  0  0  0  0
    0.7231    1.3477    0.0000 C   0  0  0  0  0  0  0  0  0  0  0  0
    1.4375    0.9352    0.0000 C   0  0  0  0  0  0  0  0  0  0  0  0
    1.4375    0.1102    0.0000 C   0  0  0  0  0  0  0  0  0  0  0  0
    0.7231   -0.3023    0.0000 C   0  0  0  0  0  0  0  0  0  0  0  0
    0.0086    0.1102    0.0000 C   0  0  0  0  0  0  0  0  0  0  0  0
    0.0086    0.9352    0.0000 C   0  0  0  0  0  0  0  0  0  0  0  0
   -0.7059    1.3477    0.0000 N   0  0  0  0  0  0  0  0  0  0  0  0
  1  2  1  0
  2  3  2  0
  2  4  1  0
  4  5  2  0
  5  6  1  0
  6  7  2  0
  7  8  1  0
  8  9  2  0
  4  9  1  0
  9 10  1  0
M  END
>  <name>  (268) 
2-aminobenzamide

>  <Outcome>  (268) 
0

>  <SMILES>  (268) 
NC(=O)c1ccccc1N

$$$$

     RDKit          2D

  1  0  0  0  0  0  0  0  0  0999 V2000
    0.0000    0.0000    0.0000 Ta  0  0  0  0  0 15  0  0  0  0  0  0
M  END
>  <name>  (269) 
tantalum

>  <Outcome>  (269) 
2

>  <SMILES>  (269) 
[Ta]

$$$$

     RDKit          2D

 10  9  0  0  0  0  0  0  0  0999 V2000
    2.9980    2.5575    0.0000 C   0  0  0  0  0  0  0  0  0  0  0  0
    3.7125    2.1450    0.0000 C   0  0  0  0  0  0  0  0  0  0  0  0
    4.4270    2.5575    0.0000 C   0  0  0  0  0  0  0  0  0  0  0  0
    5.1414    2.1450    0.0000 C   0  0  0  0  0  0  0  0  0  0  0  0
    5.8559    2.5575    0.0000 C   0  0  0  0  0  0  0  0  0  0  0  0
    6.5704    2.1450    0.0000 C   0  0  0  0  0  0  0  0  0  0  0  0
    7.2848    2.5575    0.0000 O   0  0  0  0  0  0  0  0  0  0  0  0
    7.9993    2.1450    0.0000 C   0  0  0  0  0  0  0  0  0  0  0  0
    8.7138    2.5575    0.0000 O   0  0  0  0  0  0  0  0  0  0  0  0
    7.9993    1.3200    0.0000 Cl  0  0  0  0  0  0  0  0  0  0  0  0
  1  2  1  0
  2  3  1  0
  3  4  1  0
  4  5  1  0
  5  6  1  0
  6  7  1  0
  7  8  1  0
  8  9  2  0
  8 10  1  0
M  END
>  <name>  (270) 
chloro(hexyloxy)methanone

>  <Outcome>  (270) 
1

>  <SMILES>  (270) 
CCCCCCOC(=O)Cl

$$$$

     RDKit          2D

 13 12  0  0  0  0  0  0  0  0999 V2000
   -0.2132    0.6885    0.0000 C   0  0  0  0  0  0  0  0  0  0  0  0
    0.5013    1.1010    0.0000 C   0  0  0  0  0  0  0  0  0  0  0  0
    1.2158    0.6885    0.0000 O   0  0  0  0  0  0  0  0  0  0  0  0
    1.9302    1.1010    0.0000 C   0  0  0  0  0  0  0  0  0  0  0  0
    1.9302    1.9260    0.0000 O   0  0  0  0  0  0  0  0  0  0  0  0
    2.6447    0.6885    0.0000 C   0  0  0  0  0  0  0  0  0  0  0  0
    3.3592    1.1010    0.0000 C   0  0  0  0  0  0  0  0  0  0  0  0
    3.3592    1.9260    0.0000 C   0  0  0  0  0  0  0  0  0  0  0  0
    4.0736    0.6885    0.0000 C   0  0  0  0  0  0  0  0  0  0  0  0
    4.7881    1.1010    0.0000 C   0  0  0  0  0  0  0  0  0  0  0  0
    5.5026    1.5135    0.0000 C   0  0  0  0  0  0  0  0  0  0  0  0
    5.2006    0.3865    0.0000 C   0  0  0  0  0  0  0  0  0  0  0  0
    4.3756    1.8155    0.0000 C   0  0  0  0  0  0  0  0  0  0  0  0
  1  2  1  0
  2  3  1  0
  3  4  1  0
  4  5  2  0
  4  6  1  0
  6  7  1  0
  7  8  1  0
  7  9  1  0
  9 10  1  0
 10 11  1  0
 10 12  1  0
 10 13  1  0
M  END
>  <name>  (271) 
ethyl 3,5,5-trimethylhexanoate

>  <Outcome>  (271) 
1

>  <SMILES>  (271) 
CCOC(=O)CC(C)CC(C)(C)C

$$$$

     RDKit          2D

  5  4  0  0  0  0  0  0  0  0999 V2000
    2.1659   -0.7281    0.0000 C   0  0  0  0  0  0  0  0  0  0  0  0
    1.3409   -0.7281    0.0000 C   0  0  0  0  0  0  0  0  0  0  0  0
    0.9284   -1.4425    0.0000 C   0  0  0  0  0  0  0  0  0  0  0  0
    0.9284   -0.0136    0.0000 C   0  0  0  0  0  0  0  0  0  0  0  0
    0.1034   -0.0136    0.0000 O   0  0  0  0  0  0  0  0  0  0  0  0
  1  2  1  0
  2  3  1  0
  2  4  1  0
  4  5  2  0
M  END
>  <name>  (272) 
2-methylpropanal

>  <Outcome>  (272) 
0

>  <SMILES>  (272) 
CC(C)C=O

$$$$

     RDKit          2D

 12 11  0  0  0  0  0  0  0  0999 V2000
    0.0000    0.0000    0.0000 C   0  0  0  0  0  0  0  0  0  0  0  0
    1.2990    0.7500    0.0000 C   0  0  0  0  0  0  0  0  0  0  0  0
    2.5981   -0.0000    0.0000 C   0  0  0  0  0  0  0  0  0  0  0  0
    3.8971    0.7500    0.0000 C   0  0  0  0  0  0  0  0  0  0  0  0
    5.1962   -0.0000    0.0000 O   0  0  0  0  0  0  0  0  0  0  0  0
    6.4952    0.7500    0.0000 P   0  0  0  0  0  4  0  0  0  0  0  0
    7.7942   -0.0000    0.0000 O   0  0  0  0  0  0  0  0  0  0  0  0
    6.4952    2.2500    0.0000 O   0  0  0  0  0  0  0  0  0  0  0  0
    7.7942    3.0000    0.0000 C   0  0  0  0  0  0  0  0  0  0  0  0
    7.7942    4.5000    0.0000 C   0  0  0  0  0  0  0  0  0  0  0  0
    9.0933    5.2500    0.0000 C   0  0  0  0  0  0  0  0  0  0  0  0
    9.0933    6.7500    0.0000 C   0  0  0  0  0  0  0  0  0  0  0  0
  1  2  1  0
  2  3  1  0
  3  4  1  0
  4  5  1  0
  5  6  1  0
  6  7  2  0
  6  8  1  0
  8  9  1  0
  9 10  1  0
 10 11  1  0
 11 12  1  0
M  CHG  1   6   1
M  END
>  <name>  (273) 
dibutoxy(oxo)phosphanium

>  <Outcome>  (273) 
2

>  <SMILES>  (273) 
CCCCO[P+](=O)OCCCC

$$$$

     RDKit          2D

  9  8  0  0  0  0  0  0  0  0999 V2000
   -0.1914    0.7145    0.0000 C   0  0  0  0  0  0  0  0  0  0  0  0
    0.5230    1.1270    0.0000 C   0  0  0  0  0  0  0  0  0  0  0  0
    1.2375    0.7145    0.0000 C   0  0  0  0  0  0  0  0  0  0  0  0
    1.2375   -0.1105    0.0000 C   0  0  0  0  0  0  0  0  0  0  0  0
    1.2375   -0.9355    0.0000 N   0  0  0  0  0  0  0  0  0  0  0  0
    1.9520    1.1270    0.0000 O   0  0  0  0  0  0  0  0  0  0  0  0
    2.6664    0.7145    0.0000 C   0  0  0  0  0  0  0  0  0  0  0  0
    3.3809    1.1270    0.0000 C   0  0  0  0  0  0  0  0  0  0  0  0
    2.6664   -0.1105    0.0000 O   0  0  0  0  0  0  0  0  0  0  0  0
  1  2  2  0
  2  3  1  0
  3  4  1  0
  4  5  3  0
  3  6  1  0
  6  7  1  0
  7  8  1  0
  7  9  2  0
M  END
>  <name>  (274) 
1-cyanoprop-2-en-1-yl acetate

>  <Outcome>  (274) 
1

>  <SMILES>  (274) 
C=CC(C#N)OC(C)=O

$$$$

     RDKit          2D

 20 20  0  0  0  0  0  0  0  0999 V2000
    1.5000    0.0000    0.0000 C   0  0  0  0  0  0  0  0  0  0  0  0
    0.7500   -1.2990    0.0000 C   0  0  0  0  0  0  0  0  0  0  0  0
   -0.7500   -1.2990    0.0000 C   0  0  0  0  0  0  0  0  0  0  0  0
   -1.5000    0.0000    0.0000 C   0  0  0  0  0  0  0  0  0  0  0  0
   -0.7500    1.2990    0.0000 C   0  0  0  0  0  0  0  0  0  0  0  0
    0.7500    1.2990    0.0000 C   0  0  0  0  0  0  0  0  0  0  0  0
   -3.0000    0.0000    0.0000 C   0  0  0  0  0  0  0  0  0  0  0  0
   -3.7500    1.2990    0.0000 C   0  0  0  0  0  0  0  0  0  0  0  0
   -5.2500    1.2990    0.0000 N   0  0  0  0  0  0  0  0  0  0  0  0
   -6.0000    2.5981    0.0000 C   0  0  0  0  0  0  0  0  0  0  0  0
   -7.5000    2.5981    0.0000 C   0  0  0  0  0  0  0  0  0  0  0  0
   -8.2500    3.8971    0.0000 C   0  0  0  0  0  0  0  0  0  0  0  0
   -7.5000    5.1962    0.0000 C   0  0  0  0  0  0  0  0  0  0  0  0
   -8.2500    6.4952    0.0000 C   0  0  0  0  0  0  0  0  0  0  0  0
   -9.7500    6.4952    0.0000 C   0  0  0  0  0  0  0  0  0  0  0  0
  -10.5000    5.1962    0.0000 C   0  0  0  0  0  0  0  0  0  0  0  0
   -9.7500    3.8971    0.0000 C   0  0  0  0  0  0  0  0  0  0  0  0
  -10.5000    7.7942    0.0000 N   0  0  0  0  0  0  0  0  0  0  0  0
   -3.7500   -1.2990    0.0000 O   0  0  0  0  0  0  0  0  0  0  0  0
    0.0000    8.7942    0.0000 Cl  0  0  0  0  0  0  0  0  0  0  0  0
  1  2  2  0
  2  3  1  0
  3  4  2  0
  4  5  1  0
  5  6  2  0
  4  7  1  0
  7  8  1  0
  8  9  1  0
  9 10  1  0
 10 11  1  0
 11 12  1  0
 12 13  2  0
 13 14  1  0
 14 15  2  0
 15 16  1  0
 16 17  2  0
 15 18  1  0
  7 19  1  0
  6  1  1  0
 17 12  1  0
M  END
>  <name>  (275) 
(1R)-2-[2-(4-aminophenyl)ethylamino]-1-phenylethanol;hydrochloride

>  <Outcome>  (275) 
2

>  <SMILES>  (275) 
Cl.Nc1ccc(CCNCC(O)c2ccccc2)cc1

$$$$

     RDKit          2D

  9  8  0  0  0  0  0  0  0  0999 V2000
    0.1466   -0.5279    0.0000 B   0  0  0  0  0  0  0  0  0  0  0  0
    0.8611   -0.1154    0.0000 O   0  0  0  0  0  0  0  0  0  0  0  0
    0.8611    0.7096    0.0000 C   0  0  0  0  0  0  0  0  0  0  0  0
    1.5756    1.1221    0.0000 C   0  0  0  0  0  0  0  0  0  0  0  0
    1.5756   -0.5279    0.0000 C   0  0  0  0  0  0  0  0  0  0  0  0
    2.2900   -0.1154    0.0000 C   0  0  0  0  0  0  0  0  0  0  0  0
   -0.2659    0.1866    0.0000 F   0  0  0  0  0  0  0  0  0  0  0  0
    0.5591   -1.2424    0.0000 F   0  0  0  0  0  0  0  0  0  0  0  0
   -0.5679   -0.9404    0.0000 F   0  0  0  0  0  0  0  0  0  0  0  0
  1  2  1  0
  2  3  1  0
  3  4  1  0
  2  5  1  0
  5  6  1  0
  1  7  1  0
  1  8  1  0
  1  9  1  0
M  CHG  2   1  -1   2   1
M  END
>  <name>  (276) 
(Diethyl ether)trifluoroborane

>  <Outcome>  (276) 
1

>  <SMILES>  (276) 
CC[O+](CC)[B-](F)(F)F

$$$$

     RDKit          2D

  8  8  0  0  0  0  0  0  0  0999 V2000
    0.7145    2.0625    0.0000 N   0  0  0  0  0  0  0  0  0  0  0  0
    0.7145    1.2375    0.0000 C   0  0  0  0  0  0  0  0  0  0  0  0
    1.4289    0.8250    0.0000 C   0  0  0  0  0  0  0  0  0  0  0  0
    1.4289   -0.0000    0.0000 C   0  0  0  0  0  0  0  0  0  0  0  0
    0.7145   -0.4125    0.0000 C   0  0  0  0  0  0  0  0  0  0  0  0
   -0.0000   -0.0000    0.0000 C   0  0  0  0  0  0  0  0  0  0  0  0
   -0.0000    0.8250    0.0000 C   0  0  0  0  0  0  0  0  0  0  0  0
   -0.7145    1.2375    0.0000 N   0  0  0  0  0  0  0  0  0  0  0  0
  1  2  1  0
  2  3  2  0
  3  4  1  0
  4  5  2  0
  5  6  1  0
  6  7  2  0
  2  7  1  0
  7  8  1  0
M  END
>  <name>  (277) 
benzene-1,2-diamine

>  <Outcome>  (277) 
1

>  <SMILES>  (277) 
Nc1ccccc1N

$$$$

     RDKit          2D

  6  5  0  0  0  0  0  0  0  0999 V2000
    2.6186   -1.5166    0.0000 C   0  0  0  0  0  0  0  0  0  0  0  0
    2.2061   -0.8021    0.0000 C   0  0  0  0  0  0  0  0  0  0  0  0
    1.3811   -0.8021    0.0000 N   0  0  0  0  0  0  0  0  0  0  0  0
    0.9686   -1.5166    0.0000 O   0  0  0  0  0  0  0  0  0  0  0  0
    0.9686   -0.0877    0.0000 C   0  0  0  0  0  0  0  0  0  0  0  0
    0.1436   -0.0877    0.0000 C   0  0  0  0  0  0  0  0  0  0  0  0
  1  2  1  0
  2  3  1  0
  3  4  1  0
  3  5  1  0
  5  6  1  0
M  END
>  <name>  (278) 
N,N-diethylhydroxylamine

>  <Outcome>  (278) 
1

>  <SMILES>  (278) 
CCN(O)CC

$$$$

     RDKit          2D

 11  8  0  0  0  0  0  0  0  0999 V2000
    0.0000    0.0000    0.0000 O   0  0  0  0  0  1  0  0  0  0  0  0
    1.2990    0.7500    0.0000 Cl  0  0  0  0  0  0  0  0  0  0  0  0
    2.5981    1.5000    0.0000 O   0  0  0  0  0  0  0  0  0  0  0  0
    2.0490   -0.5490    0.0000 O   0  0  0  0  0  0  0  0  0  0  0  0
    0.5490    2.0490    0.0000 O   0  0  0  0  0  0  0  0  0  0  0  0
    3.5981    0.0000    0.0000 O   0  0  0  0  0  1  0  0  0  0  0  0
    4.8971    0.7500    0.0000 Cl  0  0  0  0  0  0  0  0  0  0  0  0
    6.1962    1.5000    0.0000 O   0  0  0  0  0  0  0  0  0  0  0  0
    5.6471   -0.5490    0.0000 O   0  0  0  0  0  0  0  0  0  0  0  0
    4.1471    2.0490    0.0000 O   0  0  0  0  0  0  0  0  0  0  0  0
    0.0000    3.0490    0.0000 Ni  0  0  0  0  0 15  0  0  0  0  0  0
  1  2  1  0
  2  3  1  0
  2  4  1  0
  2  5  1  0
  6  7  1  0
  7  8  1  0
  7  9  1  0
  7 10  1  0
M  CHG  8   1  -1   2   3   3  -1   4  -1   5  -1   6  -1   7   3   8  -1
M  CHG  3   9  -1  10  -1  11   2
M  END
>  <name>  (279) 
nickel(2+);diperchlorate

>  <Outcome>  (279) 
2

>  <SMILES>  (279) 
[Ni+2].[O-][Cl+3]([O-])([O-])[O-].[O-][Cl+3]([O-])([O-])[O-]

$$$$

     RDKit          2D

  6  5  0  0  0  0  0  0  0  0999 V2000
    0.0000    0.0000    0.0000 C   0  0  0  0  0  0  0  0  0  0  0  0
   -0.0000   -1.5000    0.0000 N   0  0  0  0  0  0  0  0  0  0  0  0
    0.0000    1.5000    0.0000 C   0  0  0  0  0  0  0  0  0  0  0  0
    0.0000    3.0000    0.0000 Cl  0  0  0  0  0  0  0  0  0  0  0  0
    1.5000    1.5000    0.0000 Cl  0  0  0  0  0  0  0  0  0  0  0  0
   -1.5000    1.5000    0.0000 Cl  0  0  0  0  0  0  0  0  0  0  0  0
  1  2  3  0
  1  3  1  0
  3  4  1  0
  3  5  1  0
  3  6  1  0
M  END
>  <name>  (280) 
2,2,2-trichloroacetonitrile

>  <Outcome>  (280) 
2

>  <SMILES>  (280) 
N#CC(Cl)(Cl)Cl

$$$$

     RDKit          2D

  7  6  0  0  0  0  0  0  0  0999 V2000
    0.0000    0.0000    0.0000 C   0  0  0  0  0  0  0  0  0  0  0  0
    1.2990    0.7500    0.0000 C   0  0  0  0  0  0  0  0  0  0  0  0
    2.5981   -0.0000    0.0000 C   0  0  0  0  0  0  0  0  0  0  0  0
    3.8971    0.7500    0.0000 C   0  0  0  0  0  0  0  0  0  0  0  0
    5.1962   -0.0000    0.0000 C   0  0  0  0  0  0  0  0  0  0  0  0
    3.8971    2.2500    0.0000 C   0  0  0  0  0  0  0  0  0  0  0  0
    5.1962    3.0000    0.0000 O   0  0  0  0  0  0  0  0  0  0  0  0
  1  2  1  0
  2  3  1  0
  3  4  1  0
  4  5  1  0
  4  6  1  0
  6  7  2  0
M  END
>  <name>  (281) 
2-methylpentanal

>  <Outcome>  (281) 
2

>  <SMILES>  (281) 
CCCC(C)C=O

$$$$

     RDKit          2D

  5  4  0  0  0  0  0  0  0  0999 V2000
    0.8814    1.5057    0.0000 C   0  0  0  0  0  0  0  0  0  0  0  0
    1.2939    0.7913    0.0000 C   0  0  0  0  0  0  0  0  0  0  0  0
    0.8814    0.0768    0.0000 C   0  0  0  0  0  0  0  0  0  0  0  0
    1.2939   -0.6377    0.0000 C   0  0  0  0  0  0  0  0  0  0  0  0
    0.0564    0.0768    0.0000 Cl  0  0  0  0  0  0  0  0  0  0  0  0
  1  2  1  0
  2  3  1  0
  3  4  1  0
  3  5  1  0
M  END
>  <name>  (282) 
2-chlorobutane

>  <Outcome>  (282) 
0

>  <SMILES>  (282) 
CCC(C)Cl

$$$$

     RDKit          2D

 17 19  0  0  0  0  0  0  0  0999 V2000
   -0.8724   -0.4778    0.0000 C   0  0  0  0  0  0  0  0  0  0  0  0
   -0.1580   -0.0653    0.0000 C   0  0  0  0  0  0  0  0  0  0  0  0
    0.5565   -0.4778    0.0000 C   0  0  0  0  0  0  0  0  0  0  0  0
    0.3502    0.3472    0.0000 C   0  0  0  0  0  0  0  0  0  0  0  0
    0.5565    1.1722    0.0000 C   0  0  0  0  0  0  0  0  0  0  0  0
    1.2710    0.7597    0.0000 C   0  0  0  0  0  0  0  0  0  0  0  0
    1.2710   -0.0653    0.0000 C   0  0  0  0  0  0  0  0  0  0  0  0
    1.9854   -0.4778    0.0000 C   0  0  0  0  0  0  0  0  0  0  0  0
    2.6999   -0.0653    0.0000 C   0  0  0  0  0  0  0  0  0  0  0  0
    3.4144   -0.4778    0.0000 C   0  0  0  0  0  0  0  0  0  0  0  0
    3.4144   -1.3028    0.0000 C   0  0  0  0  0  0  0  0  0  0  0  0
    4.1288   -1.7153    0.0000 O   0  0  0  0  0  0  0  0  0  0  0  0
    2.6999   -1.7153    0.0000 C   0  0  0  0  0  0  0  0  0  0  0  0
    1.9854   -1.3028    0.0000 C   0  0  0  0  0  0  0  0  0  0  0  0
   -0.1580    0.7597    0.0000 C   0  0  0  0  0  0  0  0  0  0  0  0
   -0.5952    1.4593    0.0000 C   0  0  0  0  0  0  0  0  0  0  0  0
   -0.9825    0.7884    0.0000 C   0  0  0  0  0  0  0  0  0  0  0  0
  1  2  1  0
  2  3  1  0
  3  4  1  0
  4  5  1  0
  5  6  1  0
  6  7  1  0
  3  7  1  0
  7  8  1  0
  8  9  1  0
  9 10  1  0
 10 11  1  0
 11 12  1  0
 11 13  1  0
 13 14  1  0
  8 14  1  0
  5 15  1  0
  2 15  1  0
 15 16  1  0
 15 17  1  0
M  END
>  <name>  (283) 
4-{5,5,6-trimethylbicyclo[2.2.1]heptan-2-yl}cyclohexan-1-ol

>  <Outcome>  (283) 
0

>  <SMILES>  (283) 
CC1C2CC(CC2C2CCC(O)CC2)C1(C)C

$$$$

     RDKit          2D

 19 20  0  0  0  0  0  0  0  0999 V2000
    0.7511    0.4095    0.0000 O   0  0  0  0  0  0  0  0  0  0  0  0
    1.4656   -0.0030    0.0000 C   0  0  0  0  0  0  0  0  0  0  0  0
    2.1801   -0.4155    0.0000 N   0  0  0  0  0  0  0  0  0  0  0  0
    2.1801   -1.2405    0.0000 C   0  0  0  0  0  0  0  0  0  0  0  0
    2.8945   -1.6530    0.0000 C   0  0  0  0  0  0  0  0  0  0  0  0
    2.8945   -2.4780    0.0000 C   0  0  0  0  0  0  0  0  0  0  0  0
    2.1801   -2.8905    0.0000 C   0  0  0  0  0  0  0  0  0  0  0  0
    2.1801   -3.7155    0.0000 C   0  0  0  0  0  0  0  0  0  0  0  0
    1.4656   -4.1280    0.0000 C   0  0  0  0  0  0  0  0  0  0  0  0
    1.4656   -4.9530    0.0000 C   0  0  0  0  0  0  0  0  0  0  0  0
    0.7511   -5.3655    0.0000 C   0  0  0  0  0  0  0  0  0  0  0  0
    0.0366   -4.9530    0.0000 C   0  0  0  0  0  0  0  0  0  0  0  0
   -0.6778   -5.3655    0.0000 N   0  0  0  0  0  0  0  0  0  0  0  0
   -0.6778   -6.1905    0.0000 C   0  0  0  0  0  0  0  0  0  0  0  0
   -0.6778   -7.0155    0.0000 O   0  0  0  0  0  0  0  0  0  0  0  0
    0.0366   -4.1280    0.0000 C   0  0  0  0  0  0  0  0  0  0  0  0
    0.7511   -3.7155    0.0000 C   0  0  0  0  0  0  0  0  0  0  0  0
    1.4656   -2.4780    0.0000 C   0  0  0  0  0  0  0  0  0  0  0  0
    1.4656   -1.6530    0.0000 C   0  0  0  0  0  0  0  0  0  0  0  0
  1  2  2  0
  2  3  2  0
  3  4  1  0
  4  5  1  0
  5  6  1  0
  6  7  1  0
  7  8  1  0
  8  9  1  0
  9 10  1  0
 10 11  1  0
 11 12  1  0
 12 13  1  0
 13 14  2  0
 14 15  2  0
 12 16  1  0
 16 17  1  0
  9 17  1  0
  7 18  1  0
 18 19  1  0
  4 19  1  0
M  END
>  <name>  (284) 
1-isocyanato-4-[(4-isocyanatocyclohexyl)methyl]cyclohexane

>  <Outcome>  (284) 
1

>  <SMILES>  (284) 
O=C=NC1CCC(CC2CCC(N=C=O)CC2)CC1

$$$$

     RDKit          2D

  6  6  0  0  0  0  0  0  0  0999 V2000
   -0.3744    0.5149    0.0000 C   0  0  0  0  0  0  0  0  0  0  0  0
    0.4506    0.5149    0.0000 C   0  0  0  0  0  0  0  0  0  0  0  0
    1.0340    1.0982    0.0000 C   0  0  0  0  0  0  0  0  0  0  0  0
    1.6174    0.5149    0.0000 C   0  0  0  0  0  0  0  0  0  0  0  0
    2.4424    0.5149    0.0000 O   0  0  0  0  0  0  0  0  0  0  0  0
    1.0340   -0.0685    0.0000 O   0  0  0  0  0  0  0  0  0  0  0  0
  1  2  2  0
  2  3  1  0
  3  4  1  0
  4  5  2  0
  4  6  1  0
  2  6  1  0
M  END
>  <name>  (285) 
4-methyleneoxetan-2-one

>  <Outcome>  (285) 
1

>  <SMILES>  (285) 
C=C1CC(=O)O1

$$$$

     RDKit          2D

 26 25  0  0  0  0  0  0  0  0999 V2000
    2.4028   -8.8660    0.0000 C   0  0  0  0  0  0  0  0  0  0  0  0
    1.9903   -8.1515    0.0000 C   0  0  0  0  0  0  0  0  0  0  0  0
    2.4028   -7.4370    0.0000 C   0  0  0  0  0  0  0  0  0  0  0  0
    1.9903   -6.7225    0.0000 C   0  0  0  0  0  0  0  0  0  0  0  0
    2.4028   -6.0081    0.0000 C   0  0  0  0  0  0  0  0  0  0  0  0
    1.9903   -5.2936    0.0000 C   0  0  0  0  0  0  0  0  0  0  0  0
    2.4028   -4.5791    0.0000 C   0  0  0  0  0  0  0  0  0  0  0  0
    1.9903   -3.8647    0.0000 C   0  0  0  0  0  0  0  0  0  0  0  0
    2.4028   -3.1502    0.0000 Sn  0  0  0  0  0  4  0  0  0  0  0  0
    3.1172   -3.5627    0.0000 Cl  0  0  0  0  0  0  0  0  0  0  0  0
    2.8153   -2.4357    0.0000 C   0  0  0  0  0  0  0  0  0  0  0  0
    3.6403   -2.4357    0.0000 C   0  0  0  0  0  0  0  0  0  0  0  0
    4.0528   -3.1502    0.0000 C   0  0  0  0  0  0  0  0  0  0  0  0
    4.8778   -3.1502    0.0000 C   0  0  0  0  0  0  0  0  0  0  0  0
    5.2903   -3.8647    0.0000 C   0  0  0  0  0  0  0  0  0  0  0  0
    6.1153   -3.8647    0.0000 C   0  0  0  0  0  0  0  0  0  0  0  0
    6.5278   -4.5791    0.0000 C   0  0  0  0  0  0  0  0  0  0  0  0
    7.3528   -4.5791    0.0000 C   0  0  0  0  0  0  0  0  0  0  0  0
    1.6883   -2.7377    0.0000 C   0  0  0  0  0  0  0  0  0  0  0  0
    1.6883   -1.9127    0.0000 C   0  0  0  0  0  0  0  0  0  0  0  0
    2.4028   -1.5002    0.0000 C   0  0  0  0  0  0  0  0  0  0  0  0
    3.1172   -1.9127    0.0000 C   0  0  0  0  0  0  0  0  0  0  0  0
    3.8317   -1.5002    0.0000 C   0  0  0  0  0  0  0  0  0  0  0  0
    4.5462   -1.9127    0.0000 C   0  0  0  0  0  0  0  0  0  0  0  0
    5.2607   -1.5002    0.0000 C   0  0  0  0  0  0  0  0  0  0  0  0
    5.9751   -1.9127    0.0000 C   0  0  0  0  0  0  0  0  0  0  0  0
  1  2  1  0
  2  3  1  0
  3  4  1  0
  4  5  1  0
  5  6  1  0
  6  7  1  0
  7  8  1  0
  8  9  1  0
  9 10  1  0
  9 11  1  0
 11 12  1  0
 12 13  1  0
 13 14  1  0
 14 15  1  0
 15 16  1  0
 16 17  1  0
 17 18  1  0
  9 19  1  0
 19 20  1  0
 20 21  1  0
 21 22  1  0
 22 23  1  0
 23 24  1  0
 24 25  1  0
 25 26  1  0
M  END
>  <name>  (286) 
chlorotrioctylstannane

>  <Outcome>  (286) 
1

>  <SMILES>  (286) 
CCCCCCCC[Sn](Cl)(CCCCCCCC)CCCCCCCC

$$$$

     RDKit          2D

  8  7  0  0  0  0  0  0  0  0999 V2000
    0.0000    0.0000    0.0000 C   0  0  0  0  0  0  0  0  0  0  0  0
    1.2990    0.7500    0.0000 C   0  0  0  0  0  0  0  0  0  0  0  0
    2.5981   -0.0000    0.0000 N   0  0  0  0  0  0  0  0  0  0  0  0
    3.8971    0.7500    0.0000 C   0  0  0  0  0  0  0  0  0  0  0  0
    5.1962   -0.0000    0.0000 C   0  0  0  0  0  0  0  0  0  0  0  0
    2.5981   -1.5000    0.0000 C   0  0  0  0  0  0  0  0  0  0  0  0
    3.8971   -2.2500    0.0000 O   0  0  0  0  0  0  0  0  0  0  0  0
    1.2990   -2.2500    0.0000 Cl  0  0  0  0  0  0  0  0  0  0  0  0
  1  2  1  0
  2  3  1  0
  3  4  1  0
  4  5  1  0
  3  6  1  0
  6  7  2  0
  6  8  1  0
M  END
>  <name>  (287) 
N,N-diethylcarbamoyl chloride

>  <Outcome>  (287) 
2

>  <SMILES>  (287) 
CCN(CC)C(=O)Cl

$$$$

     RDKit          2D

 10 10  0  0  0  0  0  0  0  0999 V2000
    4.5000    0.0000    0.0000 C   0  0  0  0  0  0  0  0  0  0  0  0
    3.0000    0.0000    0.0000 Si  0  0  0  0  0  4  0  0  0  0  0  0
    1.5000    0.0000    0.0000 C   0  0  0  0  0  0  0  0  0  0  0  0
    0.7500   -1.2990    0.0000 C   0  0  0  0  0  0  0  0  0  0  0  0
   -0.7500   -1.2990    0.0000 C   0  0  0  0  0  0  0  0  0  0  0  0
   -1.5000    0.0000    0.0000 C   0  0  0  0  0  0  0  0  0  0  0  0
   -0.7500    1.2990    0.0000 C   0  0  0  0  0  0  0  0  0  0  0  0
    0.7500    1.2990    0.0000 C   0  0  0  0  0  0  0  0  0  0  0  0
    3.0000    1.5000    0.0000 Cl  0  0  0  0  0  0  0  0  0  0  0  0
    3.0000   -1.5000    0.0000 Cl  0  0  0  0  0  0  0  0  0  0  0  0
  1  2  1  0
  2  3  1  0
  3  4  1  0
  4  5  1  0
  5  6  1  0
  6  7  1  0
  7  8  1  0
  2  9  1  0
  2 10  1  0
  8  3  1  0
M  END
>  <name>  (288) 
dichloro-cyclohexyl-methylsilane

>  <Outcome>  (288) 
2

>  <SMILES>  (288) 
C[Si](Cl)(Cl)C1CCCCC1

$$$$

     RDKit          2D

 11 11  0  0  0  0  0  0  0  0999 V2000
    6.0000   -2.5981    0.0000 C   0  0  0  0  0  0  0  0  0  0  0  0
    5.2500   -1.2990    0.0000 C   0  0  0  0  0  0  0  0  0  0  0  0
    3.7500   -1.2990    0.0000 O   0  0  0  0  0  0  0  0  0  0  0  0
    3.0000    0.0000    0.0000 C   0  0  0  0  0  0  0  0  0  0  0  0
    3.7500    1.2990    0.0000 O   0  0  0  0  0  0  0  0  0  0  0  0
    1.5000    0.0000    0.0000 C   0  0  0  0  0  0  0  0  0  0  0  0
    0.7500   -1.2990    0.0000 C   0  0  0  0  0  0  0  0  0  0  0  0
   -0.7500   -1.2990    0.0000 C   0  0  0  0  0  0  0  0  0  0  0  0
   -1.5000    0.0000    0.0000 N   0  0  0  0  0  0  0  0  0  0  0  0
   -0.7500    1.2990    0.0000 C   0  0  0  0  0  0  0  0  0  0  0  0
    0.7500    1.2990    0.0000 C   0  0  0  0  0  0  0  0  0  0  0  0
  1  2  1  0
  2  3  1  0
  3  4  1  0
  4  5  2  0
  4  6  1  0
  6  7  1  0
  7  8  1  0
  8  9  1  0
  9 10  1  0
 10 11  1  0
 11  6  1  0
M  END
>  <name>  (289) 
ethyl piperidine-4-carboxylate

>  <Outcome>  (289) 
2

>  <SMILES>  (289) 
CCOC(=O)C1CCNCC1

$$$$

     RDKit          2D

  6  4  0  0  0  0  0  0  0  0999 V2000
    0.0000    0.0000    0.0000 O   0  0  0  0  0  1  0  0  0  0  0  0
    1.2990    0.7500    0.0000 S   0  0  0  0  0  0  0  0  0  0  0  0
    2.0490   -0.5490    0.0000 O   0  0  0  0  0  0  0  0  0  0  0  0
    0.5490    2.0490    0.0000 O   0  0  0  0  0  0  0  0  0  0  0  0
    2.5981    1.5000    0.0000 O   0  0  0  0  0  1  0  0  0  0  0  0
    3.5981    0.0000    0.0000 Ni  0  0  0  0  0 15  0  0  0  0  0  0
  1  2  1  0
  2  3  2  0
  2  4  2  0
  2  5  1  0
M  CHG  3   1  -1   5  -1   6   2
M  END
>  <name>  (290) 
nickel(2+);sulfate

>  <Outcome>  (290) 
2

>  <SMILES>  (290) 
O=S(=O)([O-])[O-].[Ni+2]

$$$$

     RDKit          2D

  9 10  0  0  0  0  0  0  0  0999 V2000
   -1.1467   -1.0198    0.0000 S   0  0  0  0  0  0  0  0  0  0  0  0
   -1.6316   -0.3524    0.0000 C   0  0  0  0  0  0  0  0  0  0  0  0
   -1.1467    0.3150    0.0000 N   0  0  0  0  0  0  0  0  0  0  0  0
   -0.3621    0.0601    0.0000 C   0  0  0  0  0  0  0  0  0  0  0  0
    0.3524    0.4726    0.0000 C   0  0  0  0  0  0  0  0  0  0  0  0
    1.0669    0.0601    0.0000 C   0  0  0  0  0  0  0  0  0  0  0  0
    1.0669   -0.7649    0.0000 C   0  0  0  0  0  0  0  0  0  0  0  0
    0.3524   -1.1774    0.0000 C   0  0  0  0  0  0  0  0  0  0  0  0
   -0.3621   -0.7649    0.0000 C   0  0  0  0  0  0  0  0  0  0  0  0
  2  1  1  0
  3  2  2  0
  4  3  1  0
  4  5  2  0
  5  6  1  0
  6  7  2  0
  7  8  1  0
  8  9  2  0
  1  9  1  0
  9  4  1  0
M  END
>  <name>  (291) 
Benzothiazole

>  <Outcome>  (291) 
1

>  <SMILES>  (291) 
c1ccc2scnc2c1

$$$$

     RDKit          2D

 27 24  0  0  0  0  0  0  0  0999 V2000
    0.0000    0.0000    0.0000 C   0  0  0  0  0  0  0  0  0  0  0  0
    1.2990    0.7500    0.0000 C   0  0  0  0  0  0  0  0  0  0  0  0
    2.5981    1.5000    0.0000 C   0  0  0  0  0  0  0  0  0  0  0  0
    2.0490   -0.5490    0.0000 C   0  0  0  0  0  0  0  0  0  0  0  0
    0.5490    2.0490    0.0000 C   0  0  0  0  0  0  0  0  0  0  0  0
    1.2990    3.3481    0.0000 C   0  0  0  0  0  0  0  0  0  0  0  0
    0.5490    4.6471    0.0000 C   0  0  0  0  0  0  0  0  0  0  0  0
    1.2990    5.9462    0.0000 C   0  0  0  0  0  0  0  0  0  0  0  0
    0.5490    7.2452    0.0000 C   0  0  0  0  0  0  0  0  0  0  0  0
    1.2990    8.5442    0.0000 C   0  0  0  0  0  0  0  0  0  0  0  0
    0.5490    9.8433    0.0000 C   0  0  0  0  0  0  0  0  0  0  0  0
   -0.9510    9.8433    0.0000 O   0  0  0  0  0  0  0  0  0  0  0  0
    1.2990   11.1423    0.0000 O   0  0  0  0  0  1  0  0  0  0  0  0
    4.5490    0.0000    0.0000 C   0  0  0  0  0  0  0  0  0  0  0  0
    5.8481    0.7500    0.0000 C   0  0  0  0  0  0  0  0  0  0  0  0
    7.1471    1.5000    0.0000 C   0  0  0  0  0  0  0  0  0  0  0  0
    6.5981   -0.5490    0.0000 C   0  0  0  0  0  0  0  0  0  0  0  0
    5.0981    2.0490    0.0000 C   0  0  0  0  0  0  0  0  0  0  0  0
    5.8481    3.3481    0.0000 C   0  0  0  0  0  0  0  0  0  0  0  0
    5.0981    4.6471    0.0000 C   0  0  0  0  0  0  0  0  0  0  0  0
    5.8481    5.9462    0.0000 C   0  0  0  0  0  0  0  0  0  0  0  0
    5.0981    7.2452    0.0000 C   0  0  0  0  0  0  0  0  0  0  0  0
    5.8481    8.5442    0.0000 C   0  0  0  0  0  0  0  0  0  0  0  0
    5.0981    9.8433    0.0000 C   0  0  0  0  0  0  0  0  0  0  0  0
    3.5981    9.8433    0.0000 O   0  0  0  0  0  0  0  0  0  0  0  0
    5.8481   11.1423    0.0000 O   0  0  0  0  0  1  0  0  0  0  0  0
    8.1471    0.0000    0.0000 Ni  0  0  0  0  0 15  0  0  0  0  0  0
  1  2  1  0
  2  3  1  0
  2  4  1  0
  2  5  1  0
  5  6  1  0
  6  7  1  0
  7  8  1  0
  8  9  1  0
  9 10  1  0
 10 11  1  0
 11 12  2  0
 11 13  1  0
 14 15  1  0
 15 16  1  0
 15 17  1  0
 15 18  1  0
 18 19  1  0
 19 20  1  0
 20 21  1  0
 21 22  1  0
 22 23  1  0
 23 24  1  0
 24 25  2  0
 24 26  1  0
M  CHG  3  13  -1  26  -1  27   2
M  END
>  <name>  (292) 
8,8-dimethylnonanoate;nickel(2+)

>  <Outcome>  (292) 
2

>  <SMILES>  (292) 
CC(C)(C)CCCCCCC(=O)[O-].CC(C)(C)CCCCCCC(=O)[O-].[Ni+2]

$$$$

     RDKit          2D

  3  2  0  0  0  0  0  0  0  0999 V2000
    2.3421   -1.3879    0.0000 C   0  0  0  0  0  0  0  0  0  0  0  0
    1.9296   -0.6734    0.0000 C   0  0  0  0  0  0  0  0  0  0  0  0
    1.1046   -0.6734    0.0000 N   0  0  0  0  0  0  0  0  0  0  0  0
  1  2  1  0
  2  3  1  0
M  END
>  <name>  (293) 
ethanamine

>  <Outcome>  (293) 
1

>  <SMILES>  (293) 
CCN

$$$$

     RDKit          2D

  7  8  0  0  0  0  0  0  0  0999 V2000
    2.8543    1.6500    0.0000 C   0  0  0  0  0  0  0  0  0  0  0  0
    2.8543    0.8250    0.0000 C   0  0  0  0  0  0  0  0  0  0  0  0
    2.1398    0.4125    0.0000 C   0  0  0  0  0  0  0  0  0  0  0  0
    1.4253    0.8250    0.0000 C   0  0  0  0  0  0  0  0  0  0  0  0
    0.7109    1.2375    0.0000 O   0  0  0  0  0  0  0  0  0  0  0  0
    1.4253    1.6500    0.0000 C   0  0  0  0  0  0  0  0  0  0  0  0
    2.1398    2.0625    0.0000 C   0  0  0  0  0  0  0  0  0  0  0  0
  1  2  1  0
  2  3  1  0
  3  4  1  0
  4  5  1  0
  5  6  1  0
  4  6  1  0
  6  7  1  0
  1  7  1  0
M  END
>  <name>  (294) 
7-oxabicyclo[4.1.0]heptane

>  <Outcome>  (294) 
1

>  <SMILES>  (294) 
C1CCC2OC2C1

$$$$

     RDKit          2D

  6  5  0  0  0  0  0  0  0  0999 V2000
   -0.0930    1.0340    0.0000 Cl  0  0  0  0  0  0  0  0  0  0  0  0
    0.3195    0.3195    0.0000 C   0  0  0  0  0  0  0  0  0  0  0  0
    1.1445    0.3195    0.0000 Cl  0  0  0  0  0  0  0  0  0  0  0  0
   -0.0930   -0.3950    0.0000 C   0  0  0  0  0  0  0  0  0  0  0  0
    0.3195   -1.1094    0.0000 Cl  0  0  0  0  0  0  0  0  0  0  0  0
   -0.9180   -0.3950    0.0000 Cl  0  0  0  0  0  0  0  0  0  0  0  0
  1  2  1  0
  2  3  1  0
  2  4  1  0
  4  5  1  0
  4  6  1  0
M  END
>  <name>  (295) 
1,1,2,2-Tetrachloroethane

>  <Outcome>  (295) 
1

>  <SMILES>  (295) 
ClC(Cl)C(Cl)Cl

$$$$

     RDKit          2D

  8  8  0  0  0  0  0  0  0  0999 V2000
    0.7145    2.0625    0.0000 C   0  0  0  0  0  0  0  0  0  0  0  0
    0.7145    1.2375    0.0000 C   0  0  0  0  0  0  0  0  0  0  0  0
    1.4289    0.8250    0.0000 C   0  0  0  0  0  0  0  0  0  0  0  0
    1.4289    0.0000    0.0000 N   0  0  0  0  0  0  0  0  0  0  0  0
    0.7145   -0.4125    0.0000 C   0  0  0  0  0  0  0  0  0  0  0  0
   -0.0000    0.0000    0.0000 C   0  0  0  0  0  0  0  0  0  0  0  0
   -0.7145   -0.4125    0.0000 C   0  0  0  0  0  0  0  0  0  0  0  0
   -0.0000    0.8250    0.0000 C   0  0  0  0  0  0  0  0  0  0  0  0
  1  2  1  0
  2  3  2  0
  3  4  1  0
  4  5  2  0
  5  6  1  0
  6  7  1  0
  6  8  2  0
  2  8  1  0
M  END
>  <name>  (296) 
3,5-dimethylpyridine

>  <Outcome>  (296) 
1

>  <SMILES>  (296) 
Cc1cncc(C)c1

$$$$

     RDKit          2D

 25 27  0  0  0  0  0  0  0  0999 V2000
   -5.1786   -2.1193    0.0000 C   0  0  0  0  0  0  0  0  0  0  0  0
   -4.3536   -2.1193    0.0000 C   0  0  0  0  0  0  0  0  0  0  0  0
   -3.9411   -1.4048    0.0000 N   0  0  0  0  0  0  0  0  0  0  0  0
   -4.3536   -0.6903    0.0000 C   0  0  0  0  0  0  0  0  0  0  0  0
   -3.9411    0.0241    0.0000 C   0  0  0  0  0  0  0  0  0  0  0  0
   -3.1161   -1.4048    0.0000 C   0  0  0  0  0  0  0  0  0  0  0  0
   -2.7036   -0.6903    0.0000 C   0  0  0  0  0  0  0  0  0  0  0  0
   -1.8786   -0.6903    0.0000 C   0  0  0  0  0  0  0  0  0  0  0  0
   -1.4661   -1.4048    0.0000 C   0  0  0  0  0  0  0  0  0  0  0  0
   -0.6411   -1.4048    0.0000 C   0  0  0  0  0  0  0  0  0  0  0  0
   -0.2286   -0.6903    0.0000 C   0  0  0  0  0  0  0  0  0  0  0  0
    0.5964   -0.6903    0.0000 C   0  0  0  0  0  0  0  0  0  0  0  0
    1.0813   -0.0229    0.0000 N   0  0  0  0  0  0  0  0  0  0  0  0
    0.8264    0.7617    0.0000 C   0  0  0  0  0  0  0  0  0  0  0  0
    1.8659   -0.2778    0.0000 C   0  0  0  0  0  0  0  0  0  0  0  0
    2.5804    0.1347    0.0000 C   0  0  0  0  0  0  0  0  0  0  0  0
    3.2949   -0.2778    0.0000 C   0  0  0  0  0  0  0  0  0  0  0  0
    3.2949   -1.1028    0.0000 C   0  0  0  0  0  0  0  0  0  0  0  0
    2.5804   -1.5153    0.0000 C   0  0  0  0  0  0  0  0  0  0  0  0
    1.8659   -1.1028    0.0000 C   0  0  0  0  0  0  0  0  0  0  0  0
    1.0813   -1.3578    0.0000 C   0  0  0  0  0  0  0  0  0  0  0  0
    1.2444   -2.1665    0.0000 C   0  0  0  0  0  0  0  0  0  0  0  0
    0.4740   -1.9162    0.0000 C   0  0  0  0  0  0  0  0  0  0  0  0
   -1.8786   -2.1193    0.0000 C   0  0  0  0  0  0  0  0  0  0  0  0
   -2.7036   -2.1193    0.0000 C   0  0  0  0  0  0  0  0  0  0  0  0
  1  2  1  0
  2  3  1  0
  3  4  1  0
  4  5  1  0
  3  6  1  0
  6  7  2  0
  7  8  1  0
  8  9  2  0
 10  9  1  0
 10 11  2  3
 11 12  1  0
 12 13  2  0
 13 14  1  0
 13 15  1  0
 15 16  2  0
 16 17  1  0
 17 18  2  0
 18 19  1  0
 19 20  2  0
 15 20  1  0
 20 21  1  0
 12 21  1  0
 21 22  1  0
 21 23  1  0
  9 24  1  0
 24 25  2  0
  6 25  1  0
M  CHG  1  13   1
M  END
>  <name>  (297) 
2-[2-[4-(diethylamino)phenyl]vinyl]-1,3,3-trimethyl-3H-indolium dihydrogen phosphate

>  <Outcome>  (297) 
1

>  <SMILES>  (297) 
CCN(CC)c1ccc(C=CC2=[N+](C)c3ccccc3C2(C)C)cc1

$$$$

     RDKit          2D

  8  7  0  0  0  0  0  0  0  0999 V2000
    1.0461    1.4273    0.0000 C   0  0  0  0  0  0  0  0  0  0  0  0
    1.7605    1.8398    0.0000 C   0  0  0  0  0  0  0  0  0  0  0  0
    2.4750    1.4273    0.0000 C   0  0  0  0  0  0  0  0  0  0  0  0
    3.1895    1.8398    0.0000 C   0  0  0  0  0  0  0  0  0  0  0  0
    3.9040    1.4273    0.0000 O   0  0  0  0  0  0  0  0  0  0  0  0
    4.6184    1.8398    0.0000 C   0  0  0  0  0  0  0  0  0  0  0  0
    5.3329    1.4273    0.0000 C   0  0  0  0  0  0  0  0  0  0  0  0
    6.0474    1.8398    0.0000 O   0  0  0  0  0  0  0  0  0  0  0  0
  1  2  1  0
  2  3  1  0
  3  4  1  0
  4  5  1  0
  5  6  1  0
  6  7  1  0
  7  8  1  0
M  END
>  <name>  (298) 
2-butoxyethan-1-ol

>  <Outcome>  (298) 
1

>  <SMILES>  (298) 
CCCCOCCO

$$$$

     RDKit          2D

 10  9  0  0  0  0  0  0  0  0999 V2000
    2.2836    2.1446    0.0000 C   0  0  0  0  0  0  0  0  0  0  0  0
    2.9980    2.5571    0.0000 C   0  0  0  0  0  0  0  0  0  0  0  0
    3.7125    2.1446    0.0000 C   0  0  0  0  0  0  0  0  0  0  0  0
    4.4270    2.5571    0.0000 C   0  0  0  0  0  0  0  0  0  0  0  0
    5.1414    2.1446    0.0000 C   0  0  0  0  0  0  0  0  0  0  0  0
    5.8559    2.5571    0.0000 C   0  0  0  0  0  0  0  0  0  0  0  0
    6.5704    2.1446    0.0000 C   0  0  0  0  0  0  0  0  0  0  0  0
    7.2849    2.5571    0.0000 C   0  0  0  0  0  0  0  0  0  0  0  0
    7.9993    2.1446    0.0000 C   0  0  0  0  0  0  0  0  0  0  0  0
    8.7138    2.5571    0.0000 C   0  0  0  0  0  0  0  0  0  0  0  0
  1  2  2  0
  2  3  1  0
  3  4  1  0
  4  5  1  0
  5  6  1  0
  6  7  1  0
  7  8  1  0
  8  9  1  0
  9 10  1  0
M  END
>  <name>  (299) 
8-ethyl-10,12-diheptyl-9,11,13-trimethylhenicosane; 8-ethyl-10-heptyl-9,11-dimethylnonadecane

>  <Outcome>  (299) 
0

>  <SMILES>  (299) 
C=CCCCCCCCC

$$$$

     RDKit          2D

  7  6  0  0  0  0  0  0  0  0999 V2000
    2.9430   -0.7423    0.0000 C   0  0  0  0  0  0  0  0  0  0  0  0
    2.5305   -0.0279    0.0000 C   0  0  0  0  0  0  0  0  0  0  0  0
    1.7055   -0.0279    0.0000 Al  0  0  0  0  0  3  0  0  0  0  0  0
    1.2930    0.6866    0.0000 C   0  0  0  0  0  0  0  0  0  0  0  0
    0.4680    0.6866    0.0000 C   0  0  0  0  0  0  0  0  0  0  0  0
    1.2930   -0.7423    0.0000 C   0  0  0  0  0  0  0  0  0  0  0  0
    0.4680   -0.7423    0.0000 C   0  0  0  0  0  0  0  0  0  0  0  0
  1  2  1  0
  2  3  1  0
  3  4  1  0
  4  5  1  0
  3  6  1  0
  6  7  1  0
M  END
>  <name>  (300) 
Triethylaluminum

>  <Outcome>  (300) 
1

>  <SMILES>  (300) 
CC[Al](CC)CC

$$$$

     RDKit          2D

  5  3  0  0  0  0  0  0  0  0999 V2000
    0.0000    0.0000    0.0000 O   0  0  0  0  0  1  0  0  0  0  0  0
    1.2990    0.7500    0.0000 Cl  0  0  0  0  0  0  0  0  0  0  0  0
    2.5981   -0.0000    0.0000 O   0  0  0  0  0  0  0  0  0  0  0  0
    1.2990    2.2500    0.0000 O   0  0  0  0  0  0  0  0  0  0  0  0
    0.0000    3.2500    0.0000 K   0  0  0  0  0 15  0  0  0  0  0  0
  1  2  1  0
  2  3  1  0
  2  4  1  0
M  CHG  5   1  -1   2   2   3  -1   4  -1   5   1
M  END
>  <name>  (301) 
potassium;chlorate

>  <Outcome>  (301) 
2

>  <SMILES>  (301) 
[K+].[O-][Cl+2]([O-])[O-]

$$$$

     RDKit          2D

  9  8  0  0  0  0  0  0  0  0999 V2000
    0.1080   -2.0611    0.0000 O   0  0  0  0  0  0  0  0  0  0  0  0
    0.8224   -1.6486    0.0000 C   0  0  0  0  0  0  0  0  0  0  0  0
    0.8224   -0.8236    0.0000 C   0  0  0  0  0  0  0  0  0  0  0  0
    1.6474   -0.8236    0.0000 F   0  0  0  0  0  0  0  0  0  0  0  0
   -0.0026   -0.8236    0.0000 F   0  0  0  0  0  0  0  0  0  0  0  0
    0.8224    0.0014    0.0000 C   0  0  0  0  0  0  0  0  0  0  0  0
    0.8224    0.8264    0.0000 F   0  0  0  0  0  0  0  0  0  0  0  0
    1.6474    0.0014    0.0000 F   0  0  0  0  0  0  0  0  0  0  0  0
   -0.0026    0.0014    0.0000 F   0  0  0  0  0  0  0  0  0  0  0  0
  1  2  1  0
  2  3  1  0
  3  4  1  0
  3  5  1  0
  3  6  1  0
  6  7  1  0
  6  8  1  0
  6  9  1  0
M  END
>  <name>  (302) 
2,2,3,3,3-pentafluoropropan-1-ol

>  <Outcome>  (302) 
0

>  <SMILES>  (302) 
OCC(F)(F)C(F)(F)F

$$$$

     RDKit          2D

  8  7  0  0  0  0  0  0  0  0999 V2000
    1.0461    1.4303    0.0000 C   0  0  0  0  0  0  0  0  0  0  0  0
    1.7606    1.8428    0.0000 C   0  0  0  0  0  0  0  0  0  0  0  0
    2.4750    1.4303    0.0000 C   0  0  0  0  0  0  0  0  0  0  0  0
    3.1895    1.8428    0.0000 C   0  0  0  0  0  0  0  0  0  0  0  0
    3.9040    1.4303    0.0000 C   0  0  0  0  0  0  0  0  0  0  0  0
    4.6184    1.8428    0.0000 C   0  0  0  0  0  0  0  0  0  0  0  0
    5.3329    1.4303    0.0000 C   0  0  0  0  0  0  0  0  0  0  0  0
    6.0474    1.8428    0.0000 C   0  0  0  0  0  0  0  0  0  0  0  0
  1  2  2  0
  2  3  1  0
  3  4  1  0
  4  5  1  0
  5  6  1  0
  6  7  1  0
  7  8  1  0
M  END
>  <name>  (303) 
oct-1-ene

>  <Outcome>  (303) 
0

>  <SMILES>  (303) 
C=CCCCCCC

$$$$

     RDKit          2D

 32 36  0  0  0  0  0  0  0  0999 V2000
    3.6542   -1.1628    0.0000 N   0  0  0  0  0  0  0  0  0  0  0  0
    3.6542   -0.3378    0.0000 C   0  0  0  0  0  0  0  0  0  0  0  0
    4.3687    0.0747    0.0000 C   0  0  0  0  0  0  0  0  0  0  0  0
    5.0831   -0.3378    0.0000 O   0  0  0  0  0  0  0  0  0  0  0  0
    5.7976    0.0747    0.0000 C   0  0  0  0  0  0  0  0  0  0  0  0
    5.7976    0.8997    0.0000 C   0  0  0  0  0  0  0  0  0  0  0  0
    6.5121    1.3122    0.0000 C   0  0  0  0  0  0  0  0  0  0  0  0
    7.2265    0.8997    0.0000 C   0  0  0  0  0  0  0  0  0  0  0  0
    7.2265    0.0747    0.0000 C   0  0  0  0  0  0  0  0  0  0  0  0
    6.5121   -0.3378    0.0000 C   0  0  0  0  0  0  0  0  0  0  0  0
    4.3687    0.8997    0.0000 C   0  0  0  0  0  0  0  0  0  0  0  0
    5.0831    1.3122    0.0000 O   0  0  0  0  0  0  0  0  0  0  0  0
    5.0831    2.1372    0.0000 C   0  0  0  0  0  0  0  0  0  0  0  0
    4.3687    2.5497    0.0000 C   0  0  0  0  0  0  0  0  0  0  0  0
    4.3687    3.3747    0.0000 C   0  0  0  0  0  0  0  0  0  0  0  0
    5.0831    3.7872    0.0000 C   0  0  0  0  0  0  0  0  0  0  0  0
    5.7976    3.3747    0.0000 C   0  0  0  0  0  0  0  0  0  0  0  0
    5.7976    2.5497    0.0000 C   0  0  0  0  0  0  0  0  0  0  0  0
    3.6542    1.3122    0.0000 C   0  0  0  0  0  0  0  0  0  0  0  0
    3.6542    2.1372    0.0000 N   0  0  0  0  0  0  0  0  0  0  0  0
    2.9397    0.8997    0.0000 C   0  0  0  0  0  0  0  0  0  0  0  0
    2.9397    0.0747    0.0000 C   0  0  0  0  0  0  0  0  0  0  0  0
    2.2252   -0.3378    0.0000 C   0  0  0  0  0  0  0  0  0  0  0  0
    2.2252   -1.1628    0.0000 O   0  0  0  0  0  0  0  0  0  0  0  0
    1.5108    0.0747    0.0000 C   0  0  0  0  0  0  0  0  0  0  0  0
    0.7963   -0.3378    0.0000 C   0  0  0  0  0  0  0  0  0  0  0  0
    0.0818    0.0747    0.0000 C   0  0  0  0  0  0  0  0  0  0  0  0
    0.0818    0.8997    0.0000 C   0  0  0  0  0  0  0  0  0  0  0  0
    0.7963    1.3122    0.0000 C   0  0  0  0  0  0  0  0  0  0  0  0
    1.5108    0.8997    0.0000 C   0  0  0  0  0  0  0  0  0  0  0  0
    2.2252    1.3122    0.0000 C   0  0  0  0  0  0  0  0  0  0  0  0
    2.2252    2.1372    0.0000 O   0  0  0  0  0  0  0  0  0  0  0  0
  1  2  1  0
  2  3  2  0
  3  4  1  0
  4  5  1  0
  5  6  2  0
  6  7  1  0
  7  8  2  0
  8  9  1  0
  9 10  2  0
  5 10  1  0
  3 11  1  0
 11 12  1  0
 12 13  1  0
 13 14  2  0
 14 15  1  0
 15 16  2  0
 16 17  1  0
 17 18  2  0
 13 18  1  0
 11 19  2  0
 19 20  1  0
 19 21  1  0
 21 22  2  0
  2 22  1  0
 22 23  1  0
 23 24  2  0
 23 25  1  0
 25 26  2  0
 26 27  1  0
 27 28  2  0
 28 29  1  0
 29 30  2  0
 25 30  1  0
 30 31  1  0
 21 31  1  0
 31 32  2  0
M  END
>  <name>  (304) 
1,4-diamino-2,3-diphenoxy-9,10-dihydroanthracene-9,10-dione

>  <Outcome>  (304) 
0

>  <SMILES>  (304) 
Nc1c(Oc2ccccc2)c(Oc2ccccc2)c(N)c2c1C(=O)c1ccccc1C2=O

$$$$

     RDKit          2D

  7  6  0  0  0  0  0  0  0  0999 V2000
   -0.4707    0.6758    0.0000 C   0  0  0  0  0  0  0  0  0  0  0  0
    0.2438    1.0883    0.0000 C   0  0  0  0  0  0  0  0  0  0  0  0
    0.2438    1.9133    0.0000 C   0  0  0  0  0  0  0  0  0  0  0  0
    0.9582    0.6758    0.0000 C   0  0  0  0  0  0  0  0  0  0  0  0
    1.6727    1.0883    0.0000 O   0  0  0  0  0  0  0  0  0  0  0  0
    2.3872    0.6758    0.0000 C   0  0  0  0  0  0  0  0  0  0  0  0
    3.1016    1.0883    0.0000 C   0  0  0  0  0  0  0  0  0  0  0  0
  1  2  1  0
  2  3  1  0
  2  4  1  0
  4  5  1  0
  5  6  1  0
  6  7  2  0
M  END
>  <name>  (305) 
Vinyl isobutyl ether

>  <Outcome>  (305) 
0

>  <SMILES>  (305) 
C=COCC(C)C

$$$$

     RDKit          2D

  4  3  0  0  0  0  0  0  0  0999 V2000
    1.1408   -0.4088    0.0000 C   0  0  0  0  0  0  0  0  0  0  0  0
    0.3158   -0.4088    0.0000 O   0  0  0  0  0  0  0  0  0  0  0  0
   -0.0967    0.3057    0.0000 C   0  0  0  0  0  0  0  0  0  0  0  0
   -0.9217    0.3057    0.0000 O   0  0  0  0  0  0  0  0  0  0  0  0
  1  2  1  0
  2  3  1  0
  3  4  2  0
M  END
>  <name>  (306) 
Methyl formate

>  <Outcome>  (306) 
0

>  <SMILES>  (306) 
COC=O

$$$$

     RDKit          2D

  6  5  0  0  0  0  0  0  0  0999 V2000
    1.2375    0.7145    0.0000 F   0  0  0  0  0  0  0  0  0  0  0  0
    0.8250   -0.0000    0.0000 C   0  0  0  0  0  0  0  0  0  0  0  0
    1.2375   -0.7145    0.0000 F   0  0  0  0  0  0  0  0  0  0  0  0
    0.0000   -0.0000    0.0000 C   0  0  0  0  0  0  0  0  0  0  0  0
   -0.4125   -0.7145    0.0000 F   0  0  0  0  0  0  0  0  0  0  0  0
   -0.4125    0.7145    0.0000 Cl  0  0  0  0  0  0  0  0  0  0  0  0
  1  2  1  0
  2  3  1  0
  2  4  2  0
  4  5  1  0
  4  6  1  0
M  END
>  <name>  (307) 
1-chloro-1,2,2-trifluoroethene

>  <Outcome>  (307) 
1

>  <SMILES>  (307) 
FC(F)=C(F)Cl

$$$$

     RDKit          2D

  6  5  0  0  0  0  0  0  0  0999 V2000
    0.0000   -0.0022    0.0000 C   0  0  0  0  0  0  0  0  0  0  0  0
    0.7145    0.4103    0.0000 C   0  0  0  0  0  0  0  0  0  0  0  0
    1.4290   -0.0022    0.0000 O   0  0  0  0  0  0  0  0  0  0  0  0
    2.1434    0.4103    0.0000 C   0  0  0  0  0  0  0  0  0  0  0  0
    2.8579   -0.0022    0.0000 C   0  0  0  0  0  0  0  0  0  0  0  0
    3.5724    0.4103    0.0000 O   0  0  0  0  0  0  0  0  0  0  0  0
  1  2  1  0
  2  3  1  0
  3  4  1  0
  4  5  1  0
  5  6  1  0
M  END
>  <name>  (308) 
2-Ethoxyethanol

>  <Outcome>  (308) 
1

>  <SMILES>  (308) 
CCOCCO

$$$$

     RDKit          2D

 10 10  0  0  0  0  0  0  0  0999 V2000
    3.7500   -1.2990    0.0000 C   0  0  0  0  0  0  0  0  0  0  0  0
    3.0000    0.0000    0.0000 C   0  0  0  0  0  0  0  0  0  0  0  0
    1.5000    0.0000    0.0000 C   0  0  0  0  0  0  0  0  0  0  0  0
    0.7500   -1.2990    0.0000 C   0  0  0  0  0  0  0  0  0  0  0  0
   -0.7500   -1.2990    0.0000 C   0  0  0  0  0  0  0  0  0  0  0  0
   -1.5000    0.0000    0.0000 C   0  0  0  0  0  0  0  0  0  0  0  0
   -0.7500    1.2990    0.0000 C   0  0  0  0  0  0  0  0  0  0  0  0
    0.7500    1.2990    0.0000 C   0  0  0  0  0  0  0  0  0  0  0  0
    1.5000    2.5981    0.0000 C   0  0  0  0  0  0  0  0  0  0  0  0
    0.7500    3.8971    0.0000 C   0  0  0  0  0  0  0  0  0  0  0  0
  1  2  2  0
  2  3  1  0
  3  4  2  0
  4  5  1  0
  5  6  2  0
  6  7  1  0
  7  8  2  0
  8  9  1  0
  9 10  2  0
  8  3  1  0
M  END
>  <name>  (309) 
1,2-bis(ethenyl)benzene

>  <Outcome>  (309) 
2

>  <SMILES>  (309) 
C=Cc1ccccc1C=C

$$$$

     RDKit          2D

 12 11  0  0  0  0  0  0  0  0999 V2000
    4.3216   -2.3703    0.0000 C   0  0  0  0  0  0  0  0  0  0  0  0
    3.4966   -2.3703    0.0000 C   0  0  0  0  0  0  0  0  0  0  0  0
    3.0841   -1.6558    0.0000 C   0  0  0  0  0  0  0  0  0  0  0  0
    3.7986   -1.2433    0.0000 C   0  0  0  0  0  0  0  0  0  0  0  0
    2.3696   -2.0683    0.0000 C   0  0  0  0  0  0  0  0  0  0  0  0
    2.6716   -0.9413    0.0000 O   0  0  0  0  0  0  0  0  0  0  0  0
    1.8466   -0.9413    0.0000 O   0  0  0  0  0  0  0  0  0  0  0  0
    1.4341   -0.2269    0.0000 C   0  0  0  0  0  0  0  0  0  0  0  0
    2.1486    0.1856    0.0000 C   0  0  0  0  0  0  0  0  0  0  0  0
    0.7196   -0.6394    0.0000 C   0  0  0  0  0  0  0  0  0  0  0  0
    1.0216    0.4876    0.0000 C   0  0  0  0  0  0  0  0  0  0  0  0
    0.1966    0.4876    0.0000 C   0  0  0  0  0  0  0  0  0  0  0  0
  1  2  1  0
  2  3  1  0
  3  4  1  0
  3  5  1  0
  3  6  1  0
  6  7  1  0
  7  8  1  0
  8  9  1  0
  8 10  1  0
  8 11  1  0
 11 12  1  0
M  END
>  <name>  (310) 
Bis(2-methylbutan-2-yl) peroxide

>  <Outcome>  (310) 
0

>  <SMILES>  (310) 
CCC(C)(C)OOC(C)(C)CC

$$$$

     RDKit          2D

 22 24  0  0  0  0  0  0  0  0999 V2000
    5.3037   -2.0852    0.0000 C   0  0  0  0  0  0  0  0  0  0  0  0
    4.6906   -1.5331    0.0000 C   0  0  0  0  0  0  0  0  0  0  0  0
    3.9060   -1.7881    0.0000 O   0  0  0  0  0  0  0  0  0  0  0  0
    3.2929   -1.2360    0.0000 C   0  0  0  0  0  0  0  0  0  0  0  0
    3.4644   -0.4291    0.0000 O   0  0  0  0  0  0  0  0  0  0  0  0
    2.5082   -1.4910    0.0000 C   0  0  0  0  0  0  0  0  0  0  0  0
    2.2533   -2.2756    0.0000 N   0  0  0  0  0  0  0  0  0  0  0  0
    1.4283   -2.2756    0.0000 O   0  0  0  0  0  0  0  0  0  0  0  0
    1.1734   -1.4910    0.0000 C   0  0  0  0  0  0  0  0  0  0  0  0
    0.4197   -1.8265    0.0000 C   0  0  0  0  0  0  0  0  0  0  0  0
    0.3335   -2.6470    0.0000 C   0  0  0  0  0  0  0  0  0  0  0  0
   -0.4202   -2.9826    0.0000 C   0  0  0  0  0  0  0  0  0  0  0  0
   -1.0877   -2.4977    0.0000 C   0  0  0  0  0  0  0  0  0  0  0  0
   -1.0014   -1.6772    0.0000 C   0  0  0  0  0  0  0  0  0  0  0  0
   -0.2478   -1.3416    0.0000 C   0  0  0  0  0  0  0  0  0  0  0  0
    0.7609   -0.7765    0.0000 C   0  0  0  0  0  0  0  0  0  0  0  0
   -0.0641   -0.7765    0.0000 C   0  0  0  0  0  0  0  0  0  0  0  0
   -0.4766   -0.0620    0.0000 C   0  0  0  0  0  0  0  0  0  0  0  0
   -0.0641    0.6524    0.0000 C   0  0  0  0  0  0  0  0  0  0  0  0
    0.7609    0.6524    0.0000 C   0  0  0  0  0  0  0  0  0  0  0  0
    1.1734   -0.0620    0.0000 C   0  0  0  0  0  0  0  0  0  0  0  0
    1.8408   -1.0061    0.0000 C   0  0  0  0  0  0  0  0  0  0  0  0
  1  2  1  0
  2  3  1  0
  3  4  1  0
  4  5  2  0
  4  6  1  0
  6  7  2  0
  7  8  1  0
  8  9  1  0
  9 10  1  0
 10 11  2  0
 11 12  1  0
 12 13  2  0
 13 14  1  0
 14 15  2  0
 10 15  1  0
  9 16  1  0
 16 17  2  0
 17 18  1  0
 18 19  2  0
 19 20  1  0
 20 21  2  0
 16 21  1  0
  9 22  1  0
  6 22  1  0
M  END
>  <name>  (311) 
ethyl 5,5-diphenyl-4,5-dihydro-1,2-oxazole-3-carboxylate

>  <Outcome>  (311) 
0

>  <SMILES>  (311) 
CCOC(=O)C1=NOC(c2ccccc2)(c2ccccc2)C1

$$$$

     RDKit          2D

  4  3  0  0  0  0  0  0  0  0999 V2000
    1.6474   -1.4333    0.0000 C   0  0  0  0  0  0  0  0  0  0  0  0
    1.2349   -0.7188    0.0000 C   0  0  0  0  0  0  0  0  0  0  0  0
    0.8224   -0.0044    0.0000 C   0  0  0  0  0  0  0  0  0  0  0  0
   -0.0026   -0.0044    0.0000 Cl  0  0  0  0  0  0  0  0  0  0  0  0
  1  2  3  0
  2  3  1  0
  3  4  1  0
M  END
>  <name>  (312) 
3-chloroprop-1-yne

>  <Outcome>  (312) 
1

>  <SMILES>  (312) 
C#CCCl

$$$$

     RDKit          2D

 15 14  0  0  0  0  0  0  0  0999 V2000
    2.7869    0.7596    0.0000 C   0  0  0  0  0  0  0  0  0  0  0  0
    2.0724    0.3471    0.0000 O   0  0  0  0  0  0  0  0  0  0  0  0
    1.3579    0.7596    0.0000 Si  0  0  0  0  0  4  0  0  0  0  0  0
    0.6434    1.1721    0.0000 C   0  0  0  0  0  0  0  0  0  0  0  0
    0.6434    1.9971    0.0000 C   0  0  0  0  0  0  0  0  0  0  0  0
   -0.0710    2.4096    0.0000 C   0  0  0  0  0  0  0  0  0  0  0  0
    1.3579    2.4096    0.0000 C   0  0  0  0  0  0  0  0  0  0  0  0
    1.3579    3.2346    0.0000 C   0  0  0  0  0  0  0  0  0  0  0  0
    1.3579    4.0596    0.0000 C   0  0  0  0  0  0  0  0  0  0  0  0
    2.1829    3.2346    0.0000 C   0  0  0  0  0  0  0  0  0  0  0  0
    0.5329    3.2346    0.0000 C   0  0  0  0  0  0  0  0  0  0  0  0
    1.7704    1.4741    0.0000 O   0  0  0  0  0  0  0  0  0  0  0  0
    2.5954    1.4741    0.0000 C   0  0  0  0  0  0  0  0  0  0  0  0
    0.9454    0.0451    0.0000 O   0  0  0  0  0  0  0  0  0  0  0  0
    0.1204    0.0451    0.0000 C   0  0  0  0  0  0  0  0  0  0  0  0
  1  2  1  0
  2  3  1  0
  3  4  1  0
  4  5  1  0
  5  6  1  0
  5  7  1  0
  7  8  1  0
  8  9  1  0
  8 10  1  0
  8 11  1  0
  3 12  1  0
 12 13  1  0
  3 14  1  0
 14 15  1  0
M  END
>  <name>  (313) 
trimethoxy(2,4,4-trimethylpentyl)silane

>  <Outcome>  (313) 
0

>  <SMILES>  (313) 
CO[Si](CC(C)CC(C)(C)C)(OC)OC

$$$$

     RDKit          2D

  9  9  0  0  0  0  0  0  0  0999 V2000
    1.2956    1.3226    0.0000 C   0  0  0  0  0  0  0  0  0  0  0  0
    0.5811    0.9101    0.0000 C   0  0  0  0  0  0  0  0  0  0  0  0
   -0.1333    1.3226    0.0000 C   0  0  0  0  0  0  0  0  0  0  0  0
   -0.8478    0.9101    0.0000 C   0  0  0  0  0  0  0  0  0  0  0  0
   -0.8478    0.0851    0.0000 C   0  0  0  0  0  0  0  0  0  0  0  0
   -1.5623   -0.3274    0.0000 N   0  0  0  0  0  0  0  0  0  0  0  0
   -0.1333   -0.3274    0.0000 C   0  0  0  0  0  0  0  0  0  0  0  0
   -0.1333   -1.1524    0.0000 C   0  0  0  0  0  0  0  0  0  0  0  0
    0.5811    0.0851    0.0000 C   0  0  0  0  0  0  0  0  0  0  0  0
  1  2  1  0
  3  2  2  0
  4  3  1  0
  5  4  2  0
  5  6  1  0
  7  5  1  0
  7  8  1  0
  9  7  2  0
  2  9  1  0
M  END
>  <name>  (314) 
2,4-Dimethylaniline

>  <Outcome>  (314) 
1

>  <SMILES>  (314) 
Cc1ccc(N)c(C)c1

$$$$

     RDKit          2D

  6  5  0  0  0  0  0  0  0  0999 V2000
    0.7851    1.5253    0.0000 C   0  0  0  0  0  0  0  0  0  0  0  0
    1.1976    0.8108    0.0000 C   0  0  0  0  0  0  0  0  0  0  0  0
    2.0226    0.8108    0.0000 C   0  0  0  0  0  0  0  0  0  0  0  0
    0.7851    0.0963    0.0000 C   0  0  0  0  0  0  0  0  0  0  0  0
    1.1976   -0.6182    0.0000 O   0  0  0  0  0  0  0  0  0  0  0  0
   -0.0399    0.0963    0.0000 Cl  0  0  0  0  0  0  0  0  0  0  0  0
  1  2  1  0
  2  3  1  0
  2  4  1  0
  4  5  2  0
  4  6  1  0
M  END
>  <name>  (315) 
2-methylpropanoyl chloride

>  <Outcome>  (315) 
1

>  <SMILES>  (315) 
CC(C)C(=O)Cl

$$$$

     RDKit          2D

 17 17  0  0  0  0  0  0  0  0999 V2000
   -1.1654   -1.8567    0.0000 C   0  0  0  0  0  0  0  0  0  0  0  0
   -0.4509   -1.4442    0.0000 C   0  0  0  0  0  0  0  0  0  0  0  0
    0.2635   -1.8567    0.0000 C   0  0  0  0  0  0  0  0  0  0  0  0
    0.9780   -1.4442    0.0000 C   0  0  0  0  0  0  0  0  0  0  0  0
    1.6925   -1.8567    0.0000 C   0  0  0  0  0  0  0  0  0  0  0  0
    2.4069   -1.4442    0.0000 C   0  0  0  0  0  0  0  0  0  0  0  0
    3.1214   -1.8567    0.0000 C   0  0  0  0  0  0  0  0  0  0  0  0
    3.8359   -1.4442    0.0000 C   0  0  0  0  0  0  0  0  0  0  0  0
    4.5504   -1.8567    0.0000 C   0  0  0  0  0  0  0  0  0  0  0  0
    5.2648   -1.4442    0.0000 C   0  0  0  0  0  0  0  0  0  0  0  0
    5.9793   -1.8567    0.0000 C   0  0  0  0  0  0  0  0  0  0  0  0
    6.6938   -1.4442    0.0000 C   0  0  0  0  0  0  0  0  0  0  0  0
    7.4082   -1.8567    0.0000 C   0  0  0  0  0  0  0  0  0  0  0  0
    8.1227   -1.4442    0.0000 C   0  0  0  0  0  0  0  0  0  0  0  0
    8.1227   -0.6192    0.0000 C   0  0  0  0  0  0  0  0  0  0  0  0
    7.4082   -0.2067    0.0000 C   0  0  0  0  0  0  0  0  0  0  0  0
    6.6938   -0.6192    0.0000 C   0  0  0  0  0  0  0  0  0  0  0  0
  1  2  1  0
  2  3  1  0
  3  4  1  0
  4  5  1  0
  5  6  1  0
  6  7  1  0
  7  8  1  0
  8  9  1  0
  9 10  1  0
 10 11  1  0
 11 12  1  0
 13 12  2  0
 14 13  1  0
 15 14  2  0
 16 15  1  0
 17 16  2  0
 12 17  1  0
M  END
>  <name>  (316) 
Benzene, C10-13-alkyl derivs.

>  <Outcome>  (316) 
0

>  <SMILES>  (316) 
CCCCCCCCCCCc1ccccc1

$$$$

     RDKit          2D

  5  4  0  0  0  0  0  0  0  0999 V2000
    2.4738   -1.4311    0.0000 C   0  0  0  0  0  0  0  0  0  0  0  0
    2.0613   -0.7167    0.0000 C   0  0  0  0  0  0  0  0  0  0  0  0
    1.2363   -0.7167    0.0000 C   0  0  0  0  0  0  0  0  0  0  0  0
    0.8238   -0.0022    0.0000 C   0  0  0  0  0  0  0  0  0  0  0  0
   -0.0012   -0.0022    0.0000 Cl  0  0  0  0  0  0  0  0  0  0  0  0
  1  2  1  0
  2  3  1  0
  3  4  1  0
  4  5  1  0
M  END
>  <name>  (317) 
1-chlorobutane

>  <Outcome>  (317) 
0

>  <SMILES>  (317) 
CCCCCl

$$$$

     RDKit          2D

 19 19  0  0  0  0  0  0  0  0999 V2000
    3.0000    0.0000    0.0000 C   0  0  0  0  0  0  0  0  0  0  0  0
    1.5000    0.0000    0.0000 C   0  0  0  0  0  0  0  0  0  0  0  0
    0.7500   -1.2990    0.0000 C   0  0  0  0  0  0  0  0  0  0  0  0
   -0.7500   -1.2990    0.0000 C   0  0  0  0  0  0  0  0  0  0  0  0
   -1.5000    0.0000    0.0000 C   0  0  0  0  0  0  0  0  0  0  0  0
   -0.7500    1.2990    0.0000 C   0  0  0  0  0  0  0  0  0  0  0  0
    0.7500    1.2990    0.0000 C   0  0  0  0  0  0  0  0  0  0  0  0
   -3.0000    0.0000    0.0000 N   0  0  0  0  0  0  0  0  0  0  0  0
   -3.7500    1.2990    0.0000 S   0  0  0  0  0  0  0  0  0  0  0  0
   -3.0000    2.5981    0.0000 C   0  0  0  0  0  0  0  0  0  0  0  0
   -2.2500    3.8971    0.0000 F   0  0  0  0  0  0  0  0  0  0  0  0
   -1.7010    1.8481    0.0000 Cl  0  0  0  0  0  0  0  0  0  0  0  0
   -4.2990    3.3481    0.0000 Cl  0  0  0  0  0  0  0  0  0  0  0  0
   -3.7500   -1.2990    0.0000 S   0  0  0  0  0  0  0  0  0  0  0  0
   -2.4510   -2.0490    0.0000 O   0  0  0  0  0  0  0  0  0  0  0  0
   -5.0490   -0.5490    0.0000 O   0  0  0  0  0  0  0  0  0  0  0  0
   -4.5000   -2.5981    0.0000 N   0  0  0  0  0  0  0  0  0  0  0  0
   -3.7500   -3.8971    0.0000 C   0  0  0  0  0  0  0  0  0  0  0  0
   -6.0000   -2.5981    0.0000 C   0  0  0  0  0  0  0  0  0  0  0  0
  1  2  1  0
  2  3  2  0
  3  4  1  0
  4  5  2  0
  5  6  1  0
  6  7  2  0
  5  8  1  0
  8  9  1  0
  9 10  1  0
 10 11  1  0
 10 12  1  0
 10 13  1  0
  8 14  1  0
 14 15  2  0
 14 16  2  0
 14 17  1  0
 17 18  1  0
 17 19  1  0
  7  2  1  0
M  END
>  <name>  (318) 
N-[dichloro(fluoro)methyl]sulfanyl-N-(dimethylsulfamoyl)-4-methylaniline

>  <Outcome>  (318) 
2

>  <SMILES>  (318) 
Cc1ccc(N(SC(F)(Cl)Cl)S(=O)(=O)N(C)C)cc1

$$$$

     RDKit          2D

 12 12  0  0  0  0  0  0  0  0999 V2000
   -0.0000    2.4750    0.0000 O   0  0  0  0  0  0  0  0  0  0  0  0
    0.7145    2.0625    0.0000 C   0  0  0  0  0  0  0  0  0  0  0  0
    1.4289    2.4750    0.0000 Cl  0  0  0  0  0  0  0  0  0  0  0  0
    0.7145    1.2375    0.0000 C   0  0  0  0  0  0  0  0  0  0  0  0
    1.4289    0.8250    0.0000 C   0  0  0  0  0  0  0  0  0  0  0  0
    1.4289   -0.0000    0.0000 C   0  0  0  0  0  0  0  0  0  0  0  0
    0.7145   -0.4125    0.0000 C   0  0  0  0  0  0  0  0  0  0  0  0
    0.7145   -1.2375    0.0000 C   0  0  0  0  0  0  0  0  0  0  0  0
    1.4289   -1.6500    0.0000 O   0  0  0  0  0  0  0  0  0  0  0  0
   -0.0000   -1.6500    0.0000 Cl  0  0  0  0  0  0  0  0  0  0  0  0
   -0.0000    0.0000    0.0000 C   0  0  0  0  0  0  0  0  0  0  0  0
   -0.0000    0.8250    0.0000 C   0  0  0  0  0  0  0  0  0  0  0  0
  1  2  2  0
  2  3  1  0
  2  4  1  0
  4  5  2  0
  5  6  1  0
  6  7  2  0
  7  8  1  0
  8  9  2  0
  8 10  1  0
  7 11  1  0
 11 12  2  0
  4 12  1  0
M  END
>  <name>  (319) 
benzene-1,4-dicarbonyl dichloride

>  <Outcome>  (319) 
1

>  <SMILES>  (319) 
O=C(Cl)c1ccc(C(=O)Cl)cc1

$$$$

     RDKit          2D

  6  5  0  0  0  0  0  0  0  0999 V2000
    1.6484   -1.4317    0.0000 C   0  0  0  0  0  0  0  0  0  0  0  0
    1.2359   -0.7173    0.0000 Si  0  0  0  0  0  4  0  0  0  0  0  0
    1.9504   -0.3048    0.0000 Cl  0  0  0  0  0  0  0  0  0  0  0  0
    0.5214   -1.1298    0.0000 Cl  0  0  0  0  0  0  0  0  0  0  0  0
    0.8234   -0.0028    0.0000 C   0  0  0  0  0  0  0  0  0  0  0  0
   -0.0016   -0.0028    0.0000 Cl  0  0  0  0  0  0  0  0  0  0  0  0
  1  2  1  0
  2  3  1  0
  2  4  1  0
  2  5  1  0
  5  6  1  0
M  END
>  <name>  (320) 
dichloro(chloromethyl)methylsilane

>  <Outcome>  (320) 
1

>  <SMILES>  (320) 
C[Si](Cl)(Cl)CCl

$$$$

     RDKit          2D

 14 14  0  0  0  0  0  0  0  0999 V2000
    0.7881    3.0837    0.0000 C   0  0  0  0  0  0  0  0  0  0  0  0
    0.7881    2.2587    0.0000 C   0  0  0  0  0  0  0  0  0  0  0  0
   -0.0369    2.2587    0.0000 C   0  0  0  0  0  0  0  0  0  0  0  0
    1.6131    2.2587    0.0000 C   0  0  0  0  0  0  0  0  0  0  0  0
    0.7881    1.4337    0.0000 C   0  0  0  0  0  0  0  0  0  0  0  0
    1.5026    1.0212    0.0000 C   0  0  0  0  0  0  0  0  0  0  0  0
    1.5026    0.1962    0.0000 C   0  0  0  0  0  0  0  0  0  0  0  0
    0.7881   -0.2163    0.0000 C   0  0  0  0  0  0  0  0  0  0  0  0
    0.7881   -1.0413    0.0000 O   0  0  0  0  0  0  0  0  0  0  0  0
    0.0737   -1.4538    0.0000 C   0  0  0  0  0  0  0  0  0  0  0  0
    0.0737   -2.2788    0.0000 O   0  0  0  0  0  0  0  0  0  0  0  0
   -0.6408   -1.0413    0.0000 Cl  0  0  0  0  0  0  0  0  0  0  0  0
    0.0737    0.1962    0.0000 C   0  0  0  0  0  0  0  0  0  0  0  0
    0.0737    1.0212    0.0000 C   0  0  0  0  0  0  0  0  0  0  0  0
  1  2  1  0
  2  3  1  0
  2  4  1  0
  2  5  1  0
  5  6  1  0
  6  7  1  0
  7  8  1  0
  8  9  1  0
  9 10  1  0
 10 11  2  0
 10 12  1  0
  8 13  1  0
 13 14  1  0
  5 14  1  0
M  END
>  <name>  (321) 
4-tert-butylcyclohexyl chlorocarbonate

>  <Outcome>  (321) 
1

>  <SMILES>  (321) 
CC(C)(C)C1CCC(OC(=O)Cl)CC1

$$$$

     RDKit          2D

 15 15  0  0  0  0  0  0  0  0999 V2000
    1.0085    1.1615    0.0000 C   0  0  0  0  0  0  0  0  0  0  0  0
    1.7230    0.7490    0.0000 C   0  0  0  0  0  0  0  0  0  0  0  0
    2.4375    1.1615    0.0000 C   0  0  0  0  0  0  0  0  0  0  0  0
    1.7230   -0.0760    0.0000 N   0  0  0  0  0  0  0  0  0  0  0  0
    2.4375   -0.4885    0.0000 C   0  0  0  0  0  0  0  0  0  0  0  0
    2.4375   -1.3135    0.0000 O   0  0  0  0  0  0  0  0  0  0  0  0
    3.1520   -0.0760    0.0000 C   0  0  0  0  0  0  0  0  0  0  0  0
    3.8664   -0.4885    0.0000 O   0  0  0  0  0  0  0  0  0  0  0  0
    1.0085   -0.4885    0.0000 C   0  0  0  0  0  0  0  0  0  0  0  0
    0.2941   -0.0760    0.0000 C   0  0  0  0  0  0  0  0  0  0  0  0
   -0.4204   -0.4885    0.0000 C   0  0  0  0  0  0  0  0  0  0  0  0
   -0.4204   -1.3135    0.0000 C   0  0  0  0  0  0  0  0  0  0  0  0
   -1.1349   -1.7260    0.0000 F   0  0  0  0  0  0  0  0  0  0  0  0
    0.2941   -1.7260    0.0000 C   0  0  0  0  0  0  0  0  0  0  0  0
    1.0085   -1.3135    0.0000 C   0  0  0  0  0  0  0  0  0  0  0  0
  1  2  1  0
  2  3  1  0
  2  4  1  0
  4  5  1  0
  5  6  2  0
  5  7  1  0
  7  8  1  0
  4  9  1  0
 10  9  2  0
 11 10  1  0
 12 11  2  0
 12 13  1  0
 14 12  1  0
 15 14  2  0
  9 15  1  0
M  END
>  <name>  (322) 
Acetamide, N-(4-fluorophenyl)-2-hydroxy-N-(1-methylethyl)-

>  <Outcome>  (322) 
1

>  <SMILES>  (322) 
CC(C)N(C(=O)CO)c1ccc(F)cc1

$$$$

     RDKit          2D

  4  3  0  0  0  0  0  0  0  0999 V2000
    0.4398    0.9660    0.0000 N   0  0  0  0  0  0  0  0  0  0  0  0
    0.0273    0.2515    0.0000 C   0  0  0  0  0  0  0  0  0  0  0  0
    0.4398   -0.4630    0.0000 O   0  0  0  0  0  0  0  0  0  0  0  0
   -0.7977    0.2515    0.0000 O   0  0  0  0  0  0  0  0  0  0  0  0
  1  2  1  0
  2  3  1  0
  2  4  2  0
M  END
>  <name>  (323) 
Ammonium carbamate

>  <Outcome>  (323) 
1

>  <SMILES>  (323) 
NC(=O)O

$$$$

     RDKit          2D

 11 10  0  0  0  0  0  0  0  0999 V2000
    2.9980    2.5575    0.0000 C   0  0  0  0  0  0  0  0  0  0  0  0
    3.7125    2.1450    0.0000 O   0  0  0  0  0  0  0  0  0  0  0  0
    4.4270    2.5575    0.0000 C   0  0  0  0  0  0  0  0  0  0  0  0
    4.4270    3.3825    0.0000 O   0  0  0  0  0  0  0  0  0  0  0  0
    5.1414    2.1450    0.0000 C   0  0  0  0  0  0  0  0  0  0  0  0
    5.8559    2.5575    0.0000 C   0  0  0  0  0  0  0  0  0  0  0  0
    6.5704    2.1450    0.0000 C   0  0  0  0  0  0  0  0  0  0  0  0
    7.2848    2.5575    0.0000 C   0  0  0  0  0  0  0  0  0  0  0  0
    7.2848    3.3825    0.0000 O   0  0  0  0  0  0  0  0  0  0  0  0
    7.9993    2.1450    0.0000 O   0  0  0  0  0  0  0  0  0  0  0  0
    8.7138    2.5575    0.0000 C   0  0  0  0  0  0  0  0  0  0  0  0
  1  2  1  0
  2  3  1  0
  3  4  2  0
  3  5  1  0
  5  6  1  0
  6  7  1  0
  7  8  1  0
  8  9  2  0
  8 10  1  0
 10 11  1  0
M  END
>  <name>  (324) 
1,5-dimethyl pentanedioate

>  <Outcome>  (324) 
0

>  <SMILES>  (324) 
COC(=O)CCCC(=O)OC

$$$$

     RDKit          2D

 16 17  0  0  0  0  0  0  0  0999 V2000
    1.5289   -0.0212    0.0000 O   0  0  0  0  0  0  0  0  0  0  0  0
    2.2434   -0.4337    0.0000 C   0  0  0  0  0  0  0  0  0  0  0  0
    2.2434   -1.2587    0.0000 C   0  0  0  0  0  0  0  0  0  0  0  0
    2.9578   -1.6712    0.0000 C   0  0  0  0  0  0  0  0  0  0  0  0
    2.9578   -2.4962    0.0000 C   0  0  0  0  0  0  0  0  0  0  0  0
    2.2434   -2.9087    0.0000 C   0  0  0  0  0  0  0  0  0  0  0  0
    2.2434   -3.7337    0.0000 F   0  0  0  0  0  0  0  0  0  0  0  0
    1.5289   -2.4962    0.0000 C   0  0  0  0  0  0  0  0  0  0  0  0
    1.5289   -1.6712    0.0000 C   0  0  0  0  0  0  0  0  0  0  0  0
    2.9578   -0.0212    0.0000 C   0  0  0  0  0  0  0  0  0  0  0  0
    2.9578    0.8038    0.0000 C   0  0  0  0  0  0  0  0  0  0  0  0
    3.6723    1.2163    0.0000 C   0  0  0  0  0  0  0  0  0  0  0  0
    4.3868    0.8038    0.0000 C   0  0  0  0  0  0  0  0  0  0  0  0
    5.1013    1.2163    0.0000 F   0  0  0  0  0  0  0  0  0  0  0  0
    4.3868   -0.0212    0.0000 C   0  0  0  0  0  0  0  0  0  0  0  0
    3.6723   -0.4337    0.0000 C   0  0  0  0  0  0  0  0  0  0  0  0
  1  2  2  0
  2  3  1  0
  3  4  2  0
  4  5  1  0
  5  6  2  0
  6  7  1  0
  6  8  1  0
  8  9  2  0
  3  9  1  0
  2 10  1  0
 10 11  2  0
 11 12  1  0
 12 13  2  0
 13 14  1  0
 13 15  1  0
 15 16  2  0
 10 16  1  0
M  END
>  <name>  (325) 
bis(4-fluorophenyl)methanone

>  <Outcome>  (325) 
0

>  <SMILES>  (325) 
O=C(c1ccc(F)cc1)c1ccc(F)cc1

$$$$

     RDKit          2D

  6  4  0  0  0  0  0  0  0  0999 V2000
    0.0000    0.0000    0.0000 O   0  0  0  0  0  1  0  0  0  0  0  0
    1.2990    0.7500    0.0000 P   0  0  0  0  0  0  0  0  0  0  0  0
    2.5981    1.5000    0.0000 O   0  0  0  0  0  0  0  0  0  0  0  0
    0.5490    2.0490    0.0000 O   0  0  0  0  0  1  0  0  0  0  0  0
    2.0490   -0.5490    0.0000 O   0  0  0  0  0  1  0  0  0  0  0  0
    3.5981    0.0000    0.0000 Fe  0  0  0  0  0 15  0  0  0  0  0  0
  1  2  1  0
  2  3  2  0
  2  4  1  0
  2  5  1  0
M  CHG  4   1  -1   4  -1   5  -1   6   3
M  END
>  <name>  (326) 
iron(3+);phosphate

>  <Outcome>  (326) 
2

>  <SMILES>  (326) 
O=P([O-])([O-])[O-].[Fe+3]

$$$$

     RDKit          2D

  6  5  0  0  0  0  0  0  0  0999 V2000
   -0.2475    0.9178    0.0000 N   0  0  0  0  0  0  0  0  0  0  0  0
    0.1650    0.2033    0.0000 C   0  0  0  0  0  0  0  0  0  0  0  0
    0.9900    0.2033    0.0000 N   0  0  0  0  0  0  0  0  0  0  0  0
   -0.2475   -0.5112    0.0000 S   0  0  0  0  0  0  0  0  0  0  0  0
    0.1650   -1.2256    0.0000 O   0  0  0  0  0  0  0  0  0  0  0  0
   -1.0725   -0.5112    0.0000 O   0  0  0  0  0  0  0  0  0  0  0  0
  1  2  1  0
  2  3  2  0
  2  4  1  0
  4  5  1  0
  4  6  2  0
M  END
>  <name>  (327) 
Amino(imino)methanesulfinic acid

>  <Outcome>  (327) 
1

>  <SMILES>  (327) 
N=C(N)S(=O)O

$$$$

     RDKit          2D

  9  8  0  0  0  0  0  0  0  0999 V2000
    0.0000    0.0000    0.0000 C   0  0  0  0  0  0  0  0  0  0  0  0
    1.2990    0.7500    0.0000 C   0  0  0  0  0  0  0  0  0  0  0  0
    2.5981   -0.0000    0.0000 C   0  0  0  0  0  0  0  0  0  0  0  0
    3.8971    0.7500    0.0000 C   0  0  0  0  0  0  0  0  0  0  0  0
    5.1962   -0.0000    0.0000 C   0  0  0  0  0  0  0  0  0  0  0  0
    6.4952    0.7500    0.0000 C   0  0  0  0  0  0  0  0  0  0  0  0
    7.7942   -0.0000    0.0000 C   0  0  0  0  0  0  0  0  0  0  0  0
    5.1962   -1.5000    0.0000 C   0  0  0  0  0  0  0  0  0  0  0  0
    6.4952   -2.2500    0.0000 O   0  0  0  0  0  0  0  0  0  0  0  0
  1  2  1  0
  2  3  1  0
  3  4  1  0
  4  5  1  0
  5  6  1  0
  6  7  1  0
  5  8  1  0
  8  9  1  0
M  END
>  <name>  (328) 
2-ethylhexan-1-ol

>  <Outcome>  (328) 
2

>  <SMILES>  (328) 
CCCCC(CC)CO

$$$$

     RDKit          2D

  7  6  0  0  0  0  0  0  0  0999 V2000
    1.2925    2.2151    0.0000 C   0  0  0  0  0  0  0  0  0  0  0  0
    0.8800    1.5006    0.0000 O   0  0  0  0  0  0  0  0  0  0  0  0
    1.2925    0.7861    0.0000 C   0  0  0  0  0  0  0  0  0  0  0  0
    2.1175    0.7861    0.0000 O   0  0  0  0  0  0  0  0  0  0  0  0
    0.8800    0.0717    0.0000 C   0  0  0  0  0  0  0  0  0  0  0  0
    1.2925   -0.6428    0.0000 C   0  0  0  0  0  0  0  0  0  0  0  0
    0.0550    0.0717    0.0000 O   0  0  0  0  0  0  0  0  0  0  0  0
  1  2  1  0
  2  3  1  0
  3  4  2  0
  3  5  1  0
  5  6  1  0
  5  7  1  0
M  END
>  <name>  (329) 
methyl 2-hydroxypropanoate

>  <Outcome>  (329) 
0

>  <SMILES>  (329) 
COC(=O)C(C)O

$$$$

     RDKit          2D

  9  8  0  0  0  0  0  0  0  0999 V2000
    0.0000    0.0000    0.0000 C   0  0  0  0  0  0  0  0  0  0  0  0
    1.2990    0.7500    0.0000 C   0  0  0  0  0  0  0  0  0  0  0  0
    2.5981   -0.0000    0.0000 C   0  0  0  0  0  0  0  0  0  0  0  0
    3.8971    0.7500    0.0000 O   0  0  0  0  0  0  0  0  0  0  0  0
    5.1962   -0.0000    0.0000 C   0  0  0  0  0  0  0  0  0  0  0  0
    1.2990    2.2500    0.0000 O   0  0  0  0  0  0  0  0  0  0  0  0
    2.5981    3.0000    0.0000 C   0  0  0  0  0  0  0  0  0  0  0  0
    3.8971    2.2500    0.0000 O   0  0  0  0  0  0  0  0  0  0  0  0
    2.5981    4.5000    0.0000 C   0  0  0  0  0  0  0  0  0  0  0  0
  1  2  1  0
  2  3  1  0
  3  4  1  0
  4  5  1  0
  2  6  1  0
  6  7  1  0
  7  8  2  0
  7  9  1  0
M  END
>  <name>  (330) 
1-methoxypropan-2-yl acetate

>  <Outcome>  (330) 
2

>  <SMILES>  (330) 
COCC(C)OC(C)=O

$$$$

     RDKit          2D

 15 14  0  0  0  0  0  0  0  0999 V2000
    0.0001    0.2899    0.0000 C   0  0  0  0  0  0  0  0  0  0  0  0
    0.7146   -0.1226    0.0000 O   0  0  0  0  0  0  0  0  0  0  0  0
    1.4290    0.2899    0.0000 C   0  0  0  0  0  0  0  0  0  0  0  0
    2.1435   -0.1226    0.0000 C   0  0  0  0  0  0  0  0  0  0  0  0
    2.8580    0.2899    0.0000 O   0  0  0  0  0  0  0  0  0  0  0  0
    3.5725   -0.1226    0.0000 C   0  0  0  0  0  0  0  0  0  0  0  0
    4.2869    0.2899    0.0000 C   0  0  0  0  0  0  0  0  0  0  0  0
    5.0014   -0.1226    0.0000 O   0  0  0  0  0  0  0  0  0  0  0  0
    5.7159    0.2899    0.0000 C   0  0  0  0  0  0  0  0  0  0  0  0
    6.4303   -0.1226    0.0000 C   0  0  0  0  0  0  0  0  0  0  0  0
    7.1448    0.2899    0.0000 O   0  0  0  0  0  0  0  0  0  0  0  0
    7.8593   -0.1226    0.0000 C   0  0  0  0  0  0  0  0  0  0  0  0
    8.5738    0.2899    0.0000 C   0  0  0  0  0  0  0  0  0  0  0  0
    9.2882   -0.1226    0.0000 O   0  0  0  0  0  0  0  0  0  0  0  0
   10.0027    0.2899    0.0000 C   0  0  0  0  0  0  0  0  0  0  0  0
  1  2  1  0
  2  3  1  0
  3  4  1  0
  4  5  1  0
  5  6  1  0
  6  7  1  0
  7  8  1  0
  8  9  1  0
  9 10  1  0
 10 11  1  0
 11 12  1  0
 12 13  1  0
 13 14  1  0
 14 15  1  0
M  END
>  <name>  (331) 
2,5,8,11,14-Pentaoxapentadecane

>  <Outcome>  (331) 
0

>  <SMILES>  (331) 
COCCOCCOCCOCCOC

$$$$

     RDKit          2D

 11 11  0  0  0  0  0  0  0  0999 V2000
   -0.7227    3.6774    0.0000 C   0  0  0  0  0  0  0  0  0  0  0  0
   -0.0083    3.2649    0.0000 C   0  0  0  0  0  0  0  0  0  0  0  0
    0.7062    3.6774    0.0000 O   0  0  0  0  0  0  0  0  0  0  0  0
   -0.0083    2.4399    0.0000 C   0  0  0  0  0  0  0  0  0  0  0  0
    0.7062    2.0274    0.0000 O   0  0  0  0  0  0  0  0  0  0  0  0
    0.7062    1.2024    0.0000 C   0  0  0  0  0  0  0  0  0  0  0  0
    1.4207    0.7899    0.0000 C   0  0  0  0  0  0  0  0  0  0  0  0
    1.4207   -0.0351    0.0000 C   0  0  0  0  0  0  0  0  0  0  0  0
    0.7062   -0.4476    0.0000 C   0  0  0  0  0  0  0  0  0  0  0  0
   -0.0083   -0.0351    0.0000 C   0  0  0  0  0  0  0  0  0  0  0  0
   -0.0083    0.7899    0.0000 C   0  0  0  0  0  0  0  0  0  0  0  0
  1  2  1  0
  2  3  1  0
  2  4  1  0
  4  5  1  0
  5  6  1  0
  6  7  2  0
  7  8  1  0
  8  9  2  0
  9 10  1  0
 10 11  2  0
  6 11  1  0
M  END
>  <name>  (332) 
1-phenoxypropan-2-ol

>  <Outcome>  (332) 
0

>  <SMILES>  (332) 
CC(O)COc1ccccc1

$$$$

     RDKit          2D

 22 21  0  0  0  0  0  0  0  0999 V2000
    0.0000    0.0000    0.0000 C   0  0  0  0  0  0  0  0  0  0  0  0
    1.2990    0.7500    0.0000 C   0  0  0  0  0  0  0  0  0  0  0  0
    2.5981   -0.0000    0.0000 C   0  0  0  0  0  0  0  0  0  0  0  0
    3.8971    0.7500    0.0000 C   0  0  0  0  0  0  0  0  0  0  0  0
    5.1962   -0.0000    0.0000 C   0  0  0  0  0  0  0  0  0  0  0  0
    6.4952    0.7500    0.0000 C   0  0  0  0  0  0  0  0  0  0  0  0
    7.7942   -0.0000    0.0000 C   0  0  0  0  0  0  0  0  0  0  0  0
    9.0933    0.7500    0.0000 C   0  0  0  0  0  0  0  0  0  0  0  0
   10.3923   -0.0000    0.0000 C   0  0  0  0  0  0  0  0  0  0  0  0
   11.6913    0.7500    0.0000 C   0  0  0  0  0  0  0  0  0  0  0  0
   12.9904   -0.0000    0.0000 C   0  0  0  0  0  0  0  0  0  0  0  0
   14.2894    0.7500    0.0000 C   0  0  0  0  0  0  0  0  0  0  0  0
   15.5885   -0.0000    0.0000 C   0  0  0  0  0  0  0  0  0  0  0  0
   16.8875    0.7500    0.0000 C   0  0  0  0  0  0  0  0  0  0  0  0
   18.1865   -0.0000    0.0000 C   0  0  0  0  0  0  0  0  0  0  0  0
   19.4856    0.7500    0.0000 C   0  0  0  0  0  0  0  0  0  0  0  0
   20.7846   -0.0000    0.0000 C   0  0  0  0  0  0  0  0  0  0  0  0
   22.0836    0.7500    0.0000 C   0  0  0  0  0  0  0  0  0  0  0  0
   23.3827   -0.0000    0.0000 Si  0  0  0  0  0  4  0  0  0  0  0  0
   24.6817   -0.7500    0.0000 C   0  0  0  0  0  0  0  0  0  0  0  0
   22.6327   -1.2990    0.0000 Cl  0  0  0  0  0  0  0  0  0  0  0  0
   24.1327    1.2990    0.0000 Cl  0  0  0  0  0  0  0  0  0  0  0  0
  1  2  1  0
  2  3  1  0
  3  4  1  0
  4  5  1  0
  5  6  1  0
  6  7  1  0
  7  8  1  0
  8  9  1  0
  9 10  1  0
 10 11  1  0
 11 12  1  0
 12 13  1  0
 13 14  1  0
 14 15  1  0
 15 16  1  0
 16 17  1  0
 17 18  1  0
 18 19  1  0
 19 20  1  0
 19 21  1  0
 19 22  1  0
M  END
>  <name>  (333) 
dichloro-methyl-octadecylsilane

>  <Outcome>  (333) 
2

>  <SMILES>  (333) 
CCCCCCCCCCCCCCCCCC[Si](C)(Cl)Cl

$$$$

     RDKit          2D

  9  8  0  0  0  0  0  0  0  0999 V2000
    2.9980    2.5559    0.0000 C   0  0  0  0  0  0  0  0  0  0  0  0
    3.7125    2.1434    0.0000 C   0  0  0  0  0  0  0  0  0  0  0  0
    4.4270    2.5559    0.0000 C   0  0  0  0  0  0  0  0  0  0  0  0
    5.1414    2.1434    0.0000 C   0  0  0  0  0  0  0  0  0  0  0  0
    5.8559    2.5559    0.0000 C   0  0  0  0  0  0  0  0  0  0  0  0
    6.5704    2.1434    0.0000 C   0  0  0  0  0  0  0  0  0  0  0  0
    7.2849    2.5559    0.0000 C   0  0  0  0  0  0  0  0  0  0  0  0
    7.9993    2.1434    0.0000 C   0  0  0  0  0  0  0  0  0  0  0  0
    8.7138    2.5559    0.0000 C   0  0  0  0  0  0  0  0  0  0  0  0
  1  2  2  0
  2  3  1  0
  3  4  1  0
  4  5  1  0
  5  6  1  0
  6  7  1  0
  7  8  1  0
  8  9  1  0
M  END
>  <name>  (334) 
Alkenes, C8-10, C9-rich

>  <Outcome>  (334) 
0

>  <SMILES>  (334) 
C=CCCCCCCC

$$$$

     RDKit          2D

 12 13  0  0  0  0  0  0  0  0999 V2000
   -1.1003   -2.1058    0.0000 O   0  0  0  0  0  0  0  0  0  0  0  0
   -0.8454   -1.3211    0.0000 C   0  0  0  0  0  0  0  0  0  0  0  0
   -1.3303   -0.6537    0.0000 N   0  0  0  0  0  0  0  0  0  0  0  0
   -0.8454    0.0137    0.0000 S   0  0  0  0  0  0  0  0  0  0  0  0
   -1.5598    0.4262    0.0000 O   0  0  0  0  0  0  0  0  0  0  0  0
   -0.5098    0.7674    0.0000 O   0  0  0  0  0  0  0  0  0  0  0  0
   -0.0608   -0.2412    0.0000 C   0  0  0  0  0  0  0  0  0  0  0  0
    0.6537    0.1713    0.0000 C   0  0  0  0  0  0  0  0  0  0  0  0
    1.3682   -0.2412    0.0000 C   0  0  0  0  0  0  0  0  0  0  0  0
    1.3682   -1.0662    0.0000 C   0  0  0  0  0  0  0  0  0  0  0  0
    0.6537   -1.4787    0.0000 C   0  0  0  0  0  0  0  0  0  0  0  0
   -0.0608   -1.0662    0.0000 C   0  0  0  0  0  0  0  0  0  0  0  0
  1  2  2  0
  3  2  1  0
  4  3  1  0
  4  5  2  0
  4  6  2  0
  7  4  1  0
  7  8  2  0
  8  9  1  0
  9 10  2  0
 10 11  1  0
 11 12  2  0
  2 12  1  0
 12  7  1  0
M  END
>  <name>  (335) 
Saccharin

>  <Outcome>  (335) 
0

>  <SMILES>  (335) 
O=C1NS(=O)(=O)c2ccccc21

$$$$

     RDKit          2D

  3  2  0  0  0  0  0  0  0  0999 V2000
    2.1228   -1.5544    0.0000 C   0  0  0  0  0  0  0  0  0  0  0  0
    1.7103   -0.8399    0.0000 C   0  0  0  0  0  0  0  0  0  0  0  0
    0.8853   -0.8399    0.0000 O   0  0  0  0  0  0  0  0  0  0  0  0
  1  2  1  0
  2  3  1  0
M  END
>  <name>  (336) 
ethanol

>  <Outcome>  (336) 
0

>  <SMILES>  (336) 
CCO

$$$$

     RDKit          2D

  6  6  0  0  0  0  0  0  0  0999 V2000
    0.7145    1.2375    0.0000 C   0  0  0  0  0  0  0  0  0  0  0  0
    1.4289    0.8250    0.0000 C   0  0  0  0  0  0  0  0  0  0  0  0
    1.4289   -0.0000    0.0000 C   0  0  0  0  0  0  0  0  0  0  0  0
    0.7145   -0.4125    0.0000 C   0  0  0  0  0  0  0  0  0  0  0  0
    0.0000    0.0000    0.0000 C   0  0  0  0  0  0  0  0  0  0  0  0
    0.0000    0.8250    0.0000 C   0  0  0  0  0  0  0  0  0  0  0  0
  1  2  1  0
  2  3  1  0
  3  4  1  0
  4  5  1  0
  5  6  1  0
  1  6  1  0
M  END
>  <name>  (337) 
cyclohexane

>  <Outcome>  (337) 
0

>  <SMILES>  (337) 
C1CCCCC1

$$$$

     RDKit          2D

  6  5  0  0  0  0  0  0  0  0999 V2000
    0.8250    1.4289    0.0000 O   0  0  0  0  0  0  0  0  0  0  0  0
    1.2375    0.7145    0.0000 C   0  0  0  0  0  0  0  0  0  0  0  0
    2.0625    0.7145    0.0000 Cl  0  0  0  0  0  0  0  0  0  0  0  0
    0.8250   -0.0000    0.0000 C   0  0  0  0  0  0  0  0  0  0  0  0
    1.2375   -0.7145    0.0000 O   0  0  0  0  0  0  0  0  0  0  0  0
    0.0000   -0.0000    0.0000 Cl  0  0  0  0  0  0  0  0  0  0  0  0
  1  2  2  0
  2  3  1  0
  2  4  1  0
  4  5  2  0
  4  6  1  0
M  END
>  <name>  (338) 
ethanedioyl dichloride

>  <Outcome>  (338) 
1

>  <SMILES>  (338) 
O=C(Cl)C(=O)Cl

$$$$

     RDKit          2D

  4  3  0  0  0  0  0  0  0  0999 V2000
    0.4125    0.7145    0.0000 Cl  0  0  0  0  0  0  0  0  0  0  0  0
    0.0000   -0.0000    0.0000 C   0  0  0  0  0  0  0  0  0  0  0  0
    0.4125   -0.7145    0.0000 Cl  0  0  0  0  0  0  0  0  0  0  0  0
   -0.8250   -0.0000    0.0000 O   0  0  0  0  0  0  0  0  0  0  0  0
  1  2  1  0
  2  3  1  0
  2  4  2  0
M  END
>  <name>  (339) 
Phosgene

>  <Outcome>  (339) 
1

>  <SMILES>  (339) 
O=C(Cl)Cl

$$$$

     RDKit          2D

 43 49  0  0  0  0  0  0  0  0999 V2000
    1.9911   -1.2533    0.0000 C   0  0  0  0  0  0  0  0  0  0  0  0
    2.8057   -1.3839    0.0000 C   0  0  0  0  0  0  0  0  0  0  0  0
    2.7929   -0.5590    0.0000 C   0  0  0  0  0  0  0  0  0  0  0  0
    3.5008   -0.1354    0.0000 O   0  0  0  0  0  0  0  0  0  0  0  0
    3.4880    0.6895    0.0000 C   0  0  0  0  0  0  0  0  0  0  0  0
    2.7672    1.0908    0.0000 O   0  0  0  0  0  0  0  0  0  0  0  0
    4.1959    1.1131    0.0000 C   0  0  0  0  0  0  0  0  0  0  0  0
    4.5972    1.8339    0.0000 C   0  0  0  0  0  0  0  0  0  0  0  0
    5.0208    1.1259    0.0000 C   0  0  0  0  0  0  0  0  0  0  0  0
    2.5357   -2.1635    0.0000 C   0  0  0  0  0  0  0  0  0  0  0  0
    1.7256   -2.3194    0.0000 O   0  0  0  0  0  0  0  0  0  0  0  0
    1.4555   -3.0989    0.0000 C   0  0  0  0  0  0  0  0  0  0  0  0
    1.9956   -3.7226    0.0000 O   0  0  0  0  0  0  0  0  0  0  0  0
    0.6454   -3.2548    0.0000 C   0  0  0  0  0  0  0  0  0  0  0  0
    0.0217   -3.7949    0.0000 C   0  0  0  0  0  0  0  0  0  0  0  0
   -0.1342   -2.9848    0.0000 C   0  0  0  0  0  0  0  0  0  0  0  0
    3.0758   -2.7871    0.0000 C   0  0  0  0  0  0  0  0  0  0  0  0
    3.8859   -2.6312    0.0000 C   0  0  0  0  0  0  0  0  0  0  0  0
    4.1560   -1.8516    0.0000 C   0  0  0  0  0  0  0  0  0  0  0  0
    4.6961   -2.4753    0.0000 C   0  0  0  0  0  0  0  0  0  0  0  0
    3.6159   -1.2280    0.0000 C   0  0  0  0  0  0  0  0  0  0  0  0
    3.8859   -0.4485    0.0000 C   0  0  0  0  0  0  0  0  0  0  0  0
    4.6961   -0.2925    0.0000 C   0  0  0  0  0  0  0  0  0  0  0  0
    4.9661    0.4870    0.0000 O   0  0  0  0  0  0  0  0  0  0  0  0
    5.2361   -0.9162    0.0000 C   0  0  0  0  0  0  0  0  0  0  0  0
    5.5062   -0.1366    0.0000 C   0  0  0  0  0  0  0  0  0  0  0  0
    6.0463   -0.7603    0.0000 O   0  0  0  0  0  0  0  0  0  0  0  0
    6.5864   -1.3839    0.0000 C   0  0  0  0  0  0  0  0  0  0  0  0
    7.3965   -1.2280    0.0000 C   0  0  0  0  0  0  0  0  0  0  0  0
    7.9366   -1.8516    0.0000 C   0  0  0  0  0  0  0  0  0  0  0  0
    8.7467   -1.6957    0.0000 C   0  0  0  0  0  0  0  0  0  0  0  0
    9.0168   -0.9162    0.0000 C   0  0  0  0  0  0  0  0  0  0  0  0
    9.8269   -0.7603    0.0000 C   0  0  0  0  0  0  0  0  0  0  0  0
   10.3670   -1.3839    0.0000 C   0  0  0  0  0  0  0  0  0  0  0  0
   10.0970   -2.1635    0.0000 N   0  0  0  0  0  0  0  0  0  0  0  0
    9.2868   -2.3194    0.0000 C   0  0  0  0  0  0  0  0  0  0  0  0
    7.6665   -2.6312    0.0000 O   0  0  0  0  0  0  0  0  0  0  0  0
    6.8564   -2.7871    0.0000 C   0  0  0  0  0  0  0  0  0  0  0  0
    6.5864   -3.5667    0.0000 O   0  0  0  0  0  0  0  0  0  0  0  0
    6.3163   -2.1635    0.0000 C   0  0  0  0  0  0  0  0  0  0  0  0
    5.5062   -2.3194    0.0000 C   0  0  0  0  0  0  0  0  0  0  0  0
    5.2361   -3.0989    0.0000 O   0  0  0  0  0  0  0  0  0  0  0  0
    4.9661   -1.6957    0.0000 C   0  0  0  0  0  0  0  0  0  0  0  0
  1  2  1  0
  2  3  1  0
  3  4  1  0
  4  5  1  0
  5  6  2  0
  5  7  1  0
  7  8  1  0
  8  9  1  0
  7  9  1  0
  2 10  1  0
 10 11  1  0
 11 12  1  0
 12 13  2  0
 12 14  1  0
 14 15  1  0
 15 16  1  0
 14 16  1  0
 10 17  1  0
 17 18  1  0
 18 19  1  0
 19 20  1  0
 19 21  1  0
  2 21  1  0
 21 22  1  0
 22 23  1  0
 23 24  1  0
 23 25  1  0
 25 26  1  0
 25 27  1  0
 27 28  1  0
 28 29  1  0
 29 30  2  0
 30 31  1  0
 31 32  2  0
 32 33  1  0
 33 34  2  0
 34 35  1  0
 35 36  2  0
 31 36  1  0
 30 37  1  0
 37 38  1  0
 38 39  2  0
 38 40  1  0
 28 40  2  0
 40 41  1  0
 41 42  1  0
 41 43  1  0
 19 43  1  0
 25 43  1  0
M  END
>  <name>  (340) 
unnamed [915972-17-7]

>  <Outcome>  (340) 
0

>  <SMILES>  (340) 
CC1(COC(=O)C2CC2)C(OC(=O)C2CC2)CCC2(C)C1CC(O)C1(C)Oc3cc(-c4cccnc4)oc(=O)c3C(O)C21

$$$$

     RDKit          2D

  8  8  0  0  0  0  0  0  0  0999 V2000
    1.4289    0.8250    0.0000 Cl  0  0  0  0  0  0  0  0  0  0  0  0
    0.7145    0.4125    0.0000 C   0  0  0  0  0  0  0  0  0  0  0  0
   -0.0000    0.8250    0.0000 C   0  0  0  0  0  0  0  0  0  0  0  0
   -0.7145    0.4125    0.0000 C   0  0  0  0  0  0  0  0  0  0  0  0
   -0.7145   -0.4125    0.0000 C   0  0  0  0  0  0  0  0  0  0  0  0
   -0.0000   -0.8250    0.0000 C   0  0  0  0  0  0  0  0  0  0  0  0
    0.7145   -0.4125    0.0000 C   0  0  0  0  0  0  0  0  0  0  0  0
    1.4289   -0.8250    0.0000 Cl  0  0  0  0  0  0  0  0  0  0  0  0
  1  2  1  0
  3  2  2  0
  4  3  1  0
  5  4  2  0
  6  5  1  0
  7  6  2  0
  7  8  1  0
  2  7  1  0
M  END
>  <name>  (341) 
1,2-Dichlorobenzene

>  <Outcome>  (341) 
1

>  <SMILES>  (341) 
Clc1ccccc1Cl

$$$$

     RDKit          2D

 13 12  0  0  0  0  0  0  0  0999 V2000
   -0.6826   -3.3896    0.0000 C   0  0  0  0  0  0  0  0  0  0  0  0
   -0.6826   -2.5646    0.0000 Si  0  0  0  0  0  4  0  0  0  0  0  0
    0.1424   -2.5646    0.0000 C   0  0  0  0  0  0  0  0  0  0  0  0
   -1.5076   -2.5646    0.0000 C   0  0  0  0  0  0  0  0  0  0  0  0
   -0.6826   -1.7396    0.0000 O   0  0  0  0  0  0  0  0  0  0  0  0
    0.0319   -1.3271    0.0000 Si  0  0  0  0  0  4  0  0  0  0  0  0
    0.4444   -2.0416    0.0000 C   0  0  0  0  0  0  0  0  0  0  0  0
   -0.3806   -0.6127    0.0000 C   0  0  0  0  0  0  0  0  0  0  0  0
    0.7463   -0.9146    0.0000 O   0  0  0  0  0  0  0  0  0  0  0  0
    0.7463   -0.0896    0.0000 Si  0  0  0  0  0  4  0  0  0  0  0  0
    0.7463    0.7354    0.0000 C   0  0  0  0  0  0  0  0  0  0  0  0
    1.5713   -0.0896    0.0000 C   0  0  0  0  0  0  0  0  0  0  0  0
   -0.0787   -0.0896    0.0000 C   0  0  0  0  0  0  0  0  0  0  0  0
  1  2  1  0
  2  3  1  0
  2  4  1  0
  2  5  1  0
  5  6  1  0
  6  7  1  0
  6  8  1  0
  6  9  1  0
  9 10  1  0
 10 11  1  0
 10 12  1  0
 10 13  1  0
M  END
>  <name>  (342) 
2,2,4,4,6,6-hexamethyl-3,5-dioxa-2,4,6-trisilaheptane

>  <Outcome>  (342) 
0

>  <SMILES>  (342) 
C[Si](C)(C)O[Si](C)(C)O[Si](C)(C)C

$$$$

     RDKit          2D

  5  4  0  0  0  0  0  0  0  0999 V2000
    0.0000    0.0000    0.0000 Cl  0  0  0  0  0  0  0  0  0  0  0  0
    1.2990    0.7500    0.0000 Ti  0  0  0  0  0  4  0  0  0  0  0  0
    2.5981    1.5000    0.0000 Cl  0  0  0  0  0  0  0  0  0  0  0  0
    2.0490   -0.5490    0.0000 Cl  0  0  0  0  0  0  0  0  0  0  0  0
    0.5490    2.0490    0.0000 Cl  0  0  0  0  0  0  0  0  0  0  0  0
  1  2  1  0
  2  3  1  0
  2  4  1  0
  2  5  1  0
M  END
>  <name>  (343) 
tetrachlorotitanium

>  <Outcome>  (343) 
2

>  <SMILES>  (343) 
Cl[Ti](Cl)(Cl)Cl

$$$$

     RDKit          2D

 10  9  0  0  0  0  0  0  0  0999 V2000
    1.5395   -1.2375    0.0000 F   0  0  0  0  0  0  0  0  0  0  0  0
    0.8250   -0.8250    0.0000 C   0  0  0  0  0  0  0  0  0  0  0  0
    0.1105   -1.2375    0.0000 C   0  0  0  0  0  0  0  0  0  0  0  0
   -0.6039   -1.6500    0.0000 F   0  0  0  0  0  0  0  0  0  0  0  0
    0.5230   -1.9520    0.0000 F   0  0  0  0  0  0  0  0  0  0  0  0
   -0.3020   -0.5230    0.0000 F   0  0  0  0  0  0  0  0  0  0  0  0
    0.8250   -0.0000    0.0000 C   0  0  0  0  0  0  0  0  0  0  0  0
    0.8250    0.8250    0.0000 F   0  0  0  0  0  0  0  0  0  0  0  0
    1.6500   -0.0000    0.0000 F   0  0  0  0  0  0  0  0  0  0  0  0
   -0.0000   -0.0000    0.0000 F   0  0  0  0  0  0  0  0  0  0  0  0
  1  2  1  0
  2  3  1  0
  3  4  1  0
  3  5  1  0
  3  6  1  0
  2  7  1  0
  7  8  1  0
  7  9  1  0
  7 10  1  0
M  END
>  <name>  (344) 
1,1,1,2,3,3,3-heptafluoropropane

>  <Outcome>  (344) 
0

>  <SMILES>  (344) 
FC(C(F)(F)F)C(F)(F)F

$$$$

     RDKit          2D

  7  6  0  0  0  0  0  0  0  0999 V2000
   -0.1682    0.7241    0.0000 C   0  0  0  0  0  0  0  0  0  0  0  0
    0.5463    1.1366    0.0000 N   0  0  0  0  0  0  0  0  0  0  0  0
    0.5463    1.9616    0.0000 C   0  0  0  0  0  0  0  0  0  0  0  0
    1.2607    0.7241    0.0000 C   0  0  0  0  0  0  0  0  0  0  0  0
    1.9752    1.1366    0.0000 C   0  0  0  0  0  0  0  0  0  0  0  0
    2.6897    0.7241    0.0000 C   0  0  0  0  0  0  0  0  0  0  0  0
    3.4041    1.1366    0.0000 N   0  0  0  0  0  0  0  0  0  0  0  0
  1  2  1  0
  2  3  1  0
  2  4  1  0
  4  5  1  0
  5  6  1  0
  6  7  1  0
M  END
>  <name>  (345) 
(3-aminopropyl)dimethylamine

>  <Outcome>  (345) 
0

>  <SMILES>  (345) 
CN(C)CCCN

$$$$

     RDKit          2D

  6  5  0  0  0  0  0  0  0  0999 V2000
    2.4750   -1.4289    0.0000 O   0  0  0  0  0  0  0  0  0  0  0  0
    2.0625   -0.7145    0.0000 C   0  0  0  0  0  0  0  0  0  0  0  0
    2.4750   -0.0000    0.0000 O   0  0  0  0  0  0  0  0  0  0  0  0
    1.2375   -0.7145    0.0000 C   0  0  0  0  0  0  0  0  0  0  0  0
    0.8250   -0.0000    0.0000 C   0  0  0  0  0  0  0  0  0  0  0  0
   -0.0000   -0.0000    0.0000 S   0  0  0  0  0  0  0  0  0  0  0  0
  1  2  2  0
  2  3  1  0
  2  4  1  0
  4  5  1  0
  5  6  1  0
M  END
>  <name>  (346) 
3-sulfanylpropanoic acid

>  <Outcome>  (346) 
1

>  <SMILES>  (346) 
O=C(O)CCS

$$$$

     RDKit          2D

 17 18  0  0  0  0  0  0  0  0999 V2000
    1.2375   -2.1434    0.0000 C   0  0  0  0  0  0  0  0  0  0  0  0
    0.8250   -1.4289    0.0000 C   0  0  0  0  0  0  0  0  0  0  0  0
    0.4125   -0.7144    0.0000 C   0  0  0  0  0  0  0  0  0  0  0  0
    0.1105   -1.8414    0.0000 C   0  0  0  0  0  0  0  0  0  0  0  0
   -0.6039   -1.4289    0.0000 C   0  0  0  0  0  0  0  0  0  0  0  0
   -1.3184   -1.8414    0.0000 C   0  0  0  0  0  0  0  0  0  0  0  0
   -1.3184   -2.6664    0.0000 C   0  0  0  0  0  0  0  0  0  0  0  0
   -2.0329   -3.0789    0.0000 O   0  0  0  0  0  0  0  0  0  0  0  0
   -0.6039   -3.0789    0.0000 C   0  0  0  0  0  0  0  0  0  0  0  0
    0.1105   -2.6664    0.0000 C   0  0  0  0  0  0  0  0  0  0  0  0
    1.5395   -1.0164    0.0000 C   0  0  0  0  0  0  0  0  0  0  0  0
    2.2539   -1.4289    0.0000 C   0  0  0  0  0  0  0  0  0  0  0  0
    2.9684   -1.0164    0.0000 C   0  0  0  0  0  0  0  0  0  0  0  0
    2.9684   -0.1914    0.0000 C   0  0  0  0  0  0  0  0  0  0  0  0
    3.6829    0.2211    0.0000 O   0  0  0  0  0  0  0  0  0  0  0  0
    2.2539    0.2211    0.0000 C   0  0  0  0  0  0  0  0  0  0  0  0
    1.5395   -0.1914    0.0000 C   0  0  0  0  0  0  0  0  0  0  0  0
  1  2  1  0
  2  3  1  0
  2  4  1  0
  5  4  2  0
  6  5  1  0
  7  6  2  0
  7  8  1  0
  9  7  1  0
 10  9  2  0
  2 11  1  0
 12 11  2  0
 13 12  1  0
 14 13  2  0
 14 15  1  0
 16 14  1  0
 17 16  2  0
  4 10  1  0
 11 17  1  0
M  END
>  <name>  (347) 
Bisphenol A

>  <Outcome>  (347) 
0

>  <SMILES>  (347) 
CC(C)(c1ccc(O)cc1)c1ccc(O)cc1

$$$$

     RDKit          2D

  5  3  0  0  0  0  0  0  0  0999 V2000
    0.0000    0.0000    0.0000 C   0  0  0  0  0  0  0  0  0  0  0  0
    1.2990    0.7500    0.0000 C   0  0  0  0  0  0  0  0  0  0  0  0
    2.5981   -0.0000    0.0000 O   0  0  0  0  0  0  0  0  0  0  0  0
   -1.2990    0.7500    0.0000 N   0  0  0  0  0  0  0  0  0  0  0  0
    0.0000    1.7500    0.0000 N   0  0  0  0  0  0  0  0  0  0  0  0
  1  2  1  0
  2  3  1  0
  1  4  1  0
M  END
>  <name>  (348) 
2-aminoethanol;azane

>  <Outcome>  (348) 
2

>  <SMILES>  (348) 
N.NCCO

$$$$

     RDKit          2D

  5  4  0  0  0  0  0  0  0  0999 V2000
    1.7250    1.5267    0.0000 C   0  0  0  0  0  0  0  0  0  0  0  0
    1.3125    0.8122    0.0000 C   0  0  0  0  0  0  0  0  0  0  0  0
    0.9000    0.0977    0.0000 C   0  0  0  0  0  0  0  0  0  0  0  0
    1.3125   -0.6167    0.0000 C   0  0  0  0  0  0  0  0  0  0  0  0
    0.0750    0.0977    0.0000 O   0  0  0  0  0  0  0  0  0  0  0  0
  1  2  3  0
  2  3  1  0
  3  4  1  0
  3  5  1  0
M  END
>  <name>  (349) 
but-3-yn-2-ol

>  <Outcome>  (349) 
1

>  <SMILES>  (349) 
C#CC(C)O

$$$$

     RDKit          2D

 10 10  0  0  0  0  0  0  0  0999 V2000
    0.7145    2.8875    0.0000 N   0  0  0  0  0  0  0  0  0  0  0  0
    0.7145    2.0625    0.0000 C   0  0  0  0  0  0  0  0  0  0  0  0
    0.7145    1.2375    0.0000 C   0  0  0  0  0  0  0  0  0  0  0  0
    1.4289    0.8250    0.0000 C   0  0  0  0  0  0  0  0  0  0  0  0
    2.1434    1.2375    0.0000 Cl  0  0  0  0  0  0  0  0  0  0  0  0
    1.4289    0.0000    0.0000 C   0  0  0  0  0  0  0  0  0  0  0  0
    0.7145   -0.4125    0.0000 C   0  0  0  0  0  0  0  0  0  0  0  0
    0.0000    0.0000    0.0000 C   0  0  0  0  0  0  0  0  0  0  0  0
    0.0000    0.8250    0.0000 C   0  0  0  0  0  0  0  0  0  0  0  0
   -0.7145    1.2375    0.0000 Cl  0  0  0  0  0  0  0  0  0  0  0  0
  1  2  3  0
  2  3  1  0
  3  4  2  0
  4  5  1  0
  4  6  1  0
  6  7  2  0
  7  8  1  0
  8  9  2  0
  3  9  1  0
  9 10  1  0
M  END
>  <name>  (350) 
2,6-dichlorobenzonitrile

>  <Outcome>  (350) 
0

>  <SMILES>  (350) 
N#Cc1c(Cl)cccc1Cl

$$$$

     RDKit          2D

  4  2  0  0  0  0  0  0  0  0999 V2000
    0.0000    0.0000    0.0000 N   0  0  0  0  0  0  0  0  0  0  0  0
   -1.2990    0.7500    0.0000 O   0  0  0  0  0  0  0  0  0  0  0  0
    1.2990    0.7500    0.0000 O   0  0  0  0  0  1  0  0  0  0  0  0
    0.0000    1.7500    0.0000 K   0  0  0  0  0 15  0  0  0  0  0  0
  1  2  2  0
  1  3  1  0
M  CHG  2   3  -1   4   1
M  END
>  <name>  (351) 
potassium;nitrite

>  <Outcome>  (351) 
2

>  <SMILES>  (351) 
O=N[O-].[K+]

$$$$

     RDKit          2D

 15 14  0  0  0  0  0  0  0  0999 V2000
   -0.1766    0.7643    0.0000 C   0  0  0  0  0  0  0  0  0  0  0  0
    0.5378    1.1768    0.0000 C   0  0  0  0  0  0  0  0  0  0  0  0
    0.5378    2.0018    0.0000 C   0  0  0  0  0  0  0  0  0  0  0  0
    1.2523    0.7643    0.0000 O   0  0  0  0  0  0  0  0  0  0  0  0
    1.9668    1.1768    0.0000 C   0  0  0  0  0  0  0  0  0  0  0  0
    1.9668    2.0018    0.0000 O   0  0  0  0  0  0  0  0  0  0  0  0
    2.6812    0.7643    0.0000 C   0  0  0  0  0  0  0  0  0  0  0  0
    2.6812   -0.0607    0.0000 C   0  0  0  0  0  0  0  0  0  0  0  0
    3.3957    1.1768    0.0000 O   0  0  0  0  0  0  0  0  0  0  0  0
    4.1102    0.7643    0.0000 C   0  0  0  0  0  0  0  0  0  0  0  0
    4.1102   -0.0607    0.0000 O   0  0  0  0  0  0  0  0  0  0  0  0
    4.8247    1.1768    0.0000 C   0  0  0  0  0  0  0  0  0  0  0  0
    5.5391    1.5893    0.0000 C   0  0  0  0  0  0  0  0  0  0  0  0
    5.2372    0.4624    0.0000 C   0  0  0  0  0  0  0  0  0  0  0  0
    4.4122    1.8913    0.0000 C   0  0  0  0  0  0  0  0  0  0  0  0
  1  2  1  0
  2  3  1  0
  2  4  1  0
  4  5  1  0
  5  6  2  0
  5  7  1  0
  7  8  1  0
  7  9  1  0
  9 10  1  0
 10 11  2  0
 10 12  1  0
 12 13  1  0
 12 14  1  0
 12 15  1  0
M  END
>  <name>  (352) 
unnamed [1584709-99-8]

>  <Outcome>  (352) 
0

>  <SMILES>  (352) 
CC(C)OC(=O)C(C)OC(=O)C(C)(C)C

$$$$

     RDKit          2D

 15 14  0  0  0  0  0  0  0  0999 V2000
    4.7586    3.5724    0.0000 C   0  0  0  0  0  0  0  0  0  0  0  0
    5.4730    3.9849    0.0000 C   0  0  0  0  0  0  0  0  0  0  0  0
    6.1875    3.5724    0.0000 C   0  0  0  0  0  0  0  0  0  0  0  0
    6.9020    3.9849    0.0000 C   0  0  0  0  0  0  0  0  0  0  0  0
    7.6164    3.5724    0.0000 C   0  0  0  0  0  0  0  0  0  0  0  0
    8.3309    3.9849    0.0000 C   0  0  0  0  0  0  0  0  0  0  0  0
    9.0454    3.5724    0.0000 C   0  0  0  0  0  0  0  0  0  0  0  0
    9.7599    3.9849    0.0000 C   0  0  0  0  0  0  0  0  0  0  0  0
   10.4743    3.5724    0.0000 C   0  0  0  0  0  0  0  0  0  0  0  0
   11.1888    3.9849    0.0000 C   0  0  0  0  0  0  0  0  0  0  0  0
   11.9033    3.5724    0.0000 C   0  0  0  0  0  0  0  0  0  0  0  0
   12.6177    3.9849    0.0000 C   0  0  0  0  0  0  0  0  0  0  0  0
   12.6177    4.8099    0.0000 O   0  0  0  0  0  0  0  0  0  0  0  0
   13.3322    3.5724    0.0000 O   0  0  0  0  0  0  0  0  0  0  0  0
   14.0467    3.9849    0.0000 C   0  0  0  0  0  0  0  0  0  0  0  0
  1  2  1  0
  2  3  1  0
  3  4  1  0
  4  5  1  0
  5  6  1  0
  6  7  1  0
  7  8  1  0
  8  9  1  0
  9 10  1  0
 10 11  1  0
 11 12  1  0
 12 13  2  0
 12 14  1  0
 14 15  1  0
M  END
>  <name>  (353) 
methyl dodecanoate

>  <Outcome>  (353) 
0

>  <SMILES>  (353) 
CCCCCCCCCCCC(=O)OC

$$$$

     RDKit          2D

  4  3  0  0  0  0  0  0  0  0999 V2000
    1.2375    0.7145    0.0000 O   0  0  0  0  0  0  0  0  0  0  0  0
    0.8250   -0.0000    0.0000 C   0  0  0  0  0  0  0  0  0  0  0  0
    1.2375   -0.7145    0.0000 O   0  0  0  0  0  0  0  0  0  0  0  0
   -0.0000   -0.0000    0.0000 O   0  0  0  0  0  0  0  0  0  0  0  0
  1  2  2  0
  2  3  1  0
  2  4  1  0
M  END
>  <name>  (354) 
dialuminium(3+) ion hexamagnesium(2+) ion hexadecahydroxide carbonate

>  <Outcome>  (354) 
0

>  <SMILES>  (354) 
O=C(O)O

$$$$

     RDKit          2D

 11 11  0  0  0  0  0  0  0  0999 V2000
    1.4307    2.4760    0.0000 O   0  0  0  0  0  0  0  0  0  0  0  0
    0.7163    2.0635    0.0000 C   0  0  0  0  0  0  0  0  0  0  0  0
    0.0018    2.4760    0.0000 C   0  0  0  0  0  0  0  0  0  0  0  0
    0.0018    3.3010    0.0000 Cl  0  0  0  0  0  0  0  0  0  0  0  0
    0.7163    1.2385    0.0000 C   0  0  0  0  0  0  0  0  0  0  0  0
    1.4307    0.8260    0.0000 C   0  0  0  0  0  0  0  0  0  0  0  0
    1.4307    0.0010    0.0000 C   0  0  0  0  0  0  0  0  0  0  0  0
    0.7163   -0.4115    0.0000 C   0  0  0  0  0  0  0  0  0  0  0  0
    0.7163   -1.2365    0.0000 F   0  0  0  0  0  0  0  0  0  0  0  0
    0.0018    0.0010    0.0000 C   0  0  0  0  0  0  0  0  0  0  0  0
    0.0018    0.8260    0.0000 C   0  0  0  0  0  0  0  0  0  0  0  0
  1  2  2  0
  2  3  1  0
  3  4  1  0
  2  5  1  0
  5  6  2  0
  6  7  1  0
  7  8  2  0
  8  9  1  0
  8 10  1  0
 10 11  2  0
  5 11  1  0
M  END
>  <name>  (355) 
2-chloro-1-(4-fluorophenyl)ethanone

>  <Outcome>  (355) 
1

>  <SMILES>  (355) 
O=C(CCl)c1ccc(F)cc1

$$$$

     RDKit          2D

  9  9  0  0  0  0  0  0  0  0999 V2000
   -0.0000    2.4750    0.0000 C   0  0  0  0  0  0  0  0  0  0  0  0
    0.7145    2.0625    0.0000 C   0  0  0  0  0  0  0  0  0  0  0  0
    0.7145    1.2375    0.0000 C   0  0  0  0  0  0  0  0  0  0  0  0
    1.4289    0.8250    0.0000 C   0  0  0  0  0  0  0  0  0  0  0  0
    1.4289    0.0000    0.0000 C   0  0  0  0  0  0  0  0  0  0  0  0
    0.7145   -0.4125    0.0000 C   0  0  0  0  0  0  0  0  0  0  0  0
   -0.0000    0.0000    0.0000 C   0  0  0  0  0  0  0  0  0  0  0  0
   -0.7145   -0.4125    0.0000 C   0  0  0  0  0  0  0  0  0  0  0  0
   -0.0000    0.8250    0.0000 C   0  0  0  0  0  0  0  0  0  0  0  0
  1  2  2  0
  2  3  1  0
  3  4  2  0
  4  5  1  0
  5  6  2  0
  6  7  1  0
  7  8  1  0
  7  9  2  0
  3  9  1  0
M  END
>  <name>  (356) 
vinyltoluene

>  <Outcome>  (356) 
1

>  <SMILES>  (356) 
C=Cc1cccc(C)c1

$$$$

     RDKit          2D

 24 25  0  0  0  0  0  0  0  0999 V2000
    1.4280    0.8255    0.0000 C   0  0  0  0  0  0  0  0  0  0  0  0
    1.4280    0.0005    0.0000 C   0  0  0  0  0  0  0  0  0  0  0  0
    0.7135   -0.4120    0.0000 S   0  0  0  0  0  0  0  0  0  0  0  0
   -0.0009    0.0005    0.0000 O   0  0  0  0  0  0  0  0  0  0  0  0
    0.7135   -1.2370    0.0000 C   0  0  0  0  0  0  0  0  0  0  0  0
    1.3810   -1.7219    0.0000 C   0  0  0  0  0  0  0  0  0  0  0  0
    2.1656   -1.4669    0.0000 C   0  0  0  0  0  0  0  0  0  0  0  0
    2.9502   -1.2120    0.0000 N   0  0  0  0  0  0  0  0  0  0  0  0
    1.1260   -2.5065    0.0000 N   0  0  0  0  0  0  0  0  0  0  0  0
    0.3010   -2.5065    0.0000 N   0  0  0  0  0  0  0  0  0  0  0  0
   -0.1839   -3.1739    0.0000 C   0  0  0  0  0  0  0  0  0  0  0  0
    0.1517   -3.9276    0.0000 C   0  0  0  0  0  0  0  0  0  0  0  0
    0.9722   -4.0138    0.0000 Cl  0  0  0  0  0  0  0  0  0  0  0  0
   -0.3332   -4.5951    0.0000 C   0  0  0  0  0  0  0  0  0  0  0  0
   -1.1537   -4.5088    0.0000 C   0  0  0  0  0  0  0  0  0  0  0  0
   -1.6387   -5.1763    0.0000 C   0  0  0  0  0  0  0  0  0  0  0  0
   -2.1236   -5.8437    0.0000 F   0  0  0  0  0  0  0  0  0  0  0  0
   -2.3061   -4.6913    0.0000 F   0  0  0  0  0  0  0  0  0  0  0  0
   -0.9712   -5.6612    0.0000 F   0  0  0  0  0  0  0  0  0  0  0  0
   -1.4893   -3.7551    0.0000 C   0  0  0  0  0  0  0  0  0  0  0  0
   -1.0044   -3.0877    0.0000 C   0  0  0  0  0  0  0  0  0  0  0  0
   -1.3399   -2.3340    0.0000 Cl  0  0  0  0  0  0  0  0  0  0  0  0
    0.0461   -1.7219    0.0000 C   0  0  0  0  0  0  0  0  0  0  0  0
   -0.7385   -1.4669    0.0000 N   0  0  0  0  0  0  0  0  0  0  0  0
  1  2  1  0
  2  3  1  0
  3  4  2  0
  3  5  1  0
  5  6  1  0
  6  7  1  0
  7  8  3  0
  6  9  2  0
  9 10  1  0
 10 11  1  0
 11 12  2  0
 12 13  1  0
 12 14  1  0
 14 15  2  0
 15 16  1  0
 16 17  1  0
 16 18  1  0
 16 19  1  0
 15 20  1  0
 20 21  2  0
 11 21  1  0
 21 22  1  0
 10 23  1  0
  5 23  2  0
 23 24  1  0
M  END
>  <name>  (357) 
unnamed [181587-01-9]

>  <Outcome>  (357) 
0

>  <SMILES>  (357) 
CCS(=O)c1c(C#N)nn(-c2c(Cl)cc(C(F)(F)F)cc2Cl)c1N

$$$$

     RDKit          2D

 45 44  0  0  0  0  0  0  0  0999 V2000
   12.7500    6.4952    0.0000 C   0  0  0  0  0  0  0  0  0  0  0  0
   12.0000    5.1962    0.0000 C   0  0  0  0  0  0  0  0  0  0  0  0
   10.5000    5.1962    0.0000 C   0  0  0  0  0  0  0  0  0  0  0  0
    9.7500    3.8971    0.0000 C   0  0  0  0  0  0  0  0  0  0  0  0
    8.2500    3.8971    0.0000 C   0  0  0  0  0  0  0  0  0  0  0  0
    7.5000    2.5981    0.0000 C   0  0  0  0  0  0  0  0  0  0  0  0
    6.0000    2.5981    0.0000 C   0  0  0  0  0  0  0  0  0  0  0  0
    5.2500    1.2990    0.0000 C   0  0  0  0  0  0  0  0  0  0  0  0
    3.7500    1.2990    0.0000 C   0  0  0  0  0  0  0  0  0  0  0  0
    3.0000    0.0000    0.0000 C   0  0  0  0  0  0  0  0  0  0  0  0
    3.7500   -1.2990    0.0000 C   0  0  0  0  0  0  0  0  0  0  0  0
    5.2500   -1.2990    0.0000 C   0  0  0  0  0  0  0  0  0  0  0  0
    1.5000    0.0000    0.0000 C   0  0  0  0  0  0  0  0  0  0  0  0
    0.7500   -1.2990    0.0000 C   0  0  0  0  0  0  0  0  0  0  0  0
   -0.7500   -1.2990    0.0000 C   0  0  0  0  0  0  0  0  0  0  0  0
   -1.5000    0.0000    0.0000 C   0  0  0  0  0  0  0  0  0  0  0  0
   -0.7500    1.2990    0.0000 C   0  0  0  0  0  0  0  0  0  0  0  0
    0.7500    1.2990    0.0000 C   0  0  0  0  0  0  0  0  0  0  0  0
   -3.0000    0.0000    0.0000 S   0  0  0  0  0  0  0  0  0  0  0  0
   -3.0000    1.5000    0.0000 O   0  0  0  0  0  0  0  0  0  0  0  0
   -3.0000   -1.5000    0.0000 O   0  0  0  0  0  0  0  0  0  0  0  0
   -4.5000    0.0000    0.0000 O   0  0  0  0  0  1  0  0  0  0  0  0
   12.7500   15.4904    0.0000 C   0  0  0  0  0  0  0  0  0  0  0  0
   12.0000   14.1913    0.0000 C   0  0  0  0  0  0  0  0  0  0  0  0
   10.5000   14.1913    0.0000 C   0  0  0  0  0  0  0  0  0  0  0  0
    9.7500   12.8923    0.0000 C   0  0  0  0  0  0  0  0  0  0  0  0
    8.2500   12.8923    0.0000 C   0  0  0  0  0  0  0  0  0  0  0  0
    7.5000   11.5933    0.0000 C   0  0  0  0  0  0  0  0  0  0  0  0
    6.0000   11.5933    0.0000 C   0  0  0  0  0  0  0  0  0  0  0  0
    5.2500   10.2942    0.0000 C   0  0  0  0  0  0  0  0  0  0  0  0
    3.7500   10.2942    0.0000 C   0  0  0  0  0  0  0  0  0  0  0  0
    3.0000    8.9952    0.0000 C   0  0  0  0  0  0  0  0  0  0  0  0
    3.7500    7.6962    0.0000 C   0  0  0  0  0  0  0  0  0  0  0  0
    5.2500    7.6962    0.0000 C   0  0  0  0  0  0  0  0  0  0  0  0
    1.5000    8.9952    0.0000 C   0  0  0  0  0  0  0  0  0  0  0  0
    0.7500    7.6962    0.0000 C   0  0  0  0  0  0  0  0  0  0  0  0
   -0.7500    7.6962    0.0000 C   0  0  0  0  0  0  0  0  0  0  0  0
   -1.5000    8.9952    0.0000 C   0  0  0  0  0  0  0  0  0  0  0  0
   -0.7500   10.2942    0.0000 C   0  0  0  0  0  0  0  0  0  0  0  0
    0.7500   10.2942    0.0000 C   0  0  0  0  0  0  0  0  0  0  0  0
   -3.0000    8.9952    0.0000 S   0  0  0  0  0  0  0  0  0  0  0  0
   -3.0000   10.4952    0.0000 O   0  0  0  0  0  0  0  0  0  0  0  0
   -3.0000    7.4952    0.0000 O   0  0  0  0  0  0  0  0  0  0  0  0
   -4.5000    8.9952    0.0000 O   0  0  0  0  0  1  0  0  0  0  0  0
    0.0000   16.4904    0.0000 Mg  0  0  0  0  0 15  0  0  0  0  0  0
  1  2  1  0
  2  3  1  0
  3  4  1  0
  4  5  1  0
  5  6  1  0
  6  7  1  0
  7  8  1  0
  8  9  1  0
  9 10  1  0
 10 11  1  0
 11 12  1  0
 10 13  1  0
 13 14  2  0
 14 15  1  0
 15 16  2  0
 16 17  1  0
 17 18  2  0
 16 19  1  0
 19 20  2  0
 19 21  2  0
 19 22  1  0
 23 24  1  0
 24 25  1  0
 25 26  1  0
 26 27  1  0
 27 28  1  0
 28 29  1  0
 29 30  1  0
 30 31  1  0
 31 32  1  0
 32 33  1  0
 33 34  1  0
 32 35  1  0
 35 36  2  0
 36 37  1  0
 37 38  2  0
 38 39  1  0
 39 40  2  0
 38 41  1  0
 41 42  2  0
 41 43  2  0
 41 44  1  0
 18 13  1  0
 40 35  1  0
M  CHG  3  22  -1  44  -1  45   2
M  END
>  <name>  (358) 
magnesium;4-dodecan-3-ylbenzenesulfonate

>  <Outcome>  (358) 
2

>  <SMILES>  (358) 
CCCCCCCCCC(CC)c1ccc(S(=O)(=O)[O-])cc1.CCCCCCCCCC(CC)c1ccc(S(=O)(=O)[O-])cc1.[Mg+2]

$$$$

     RDKit          2D

 10  9  0  0  0  0  0  0  0  0999 V2000
   -0.5773   -0.9186    0.0000 C   0  0  0  0  0  0  0  0  0  0  0  0
    0.1372   -0.5061    0.0000 C   0  0  0  0  0  0  0  0  0  0  0  0
    0.8516   -0.9186    0.0000 C   0  0  0  0  0  0  0  0  0  0  0  0
    0.8516   -1.7436    0.0000 C   0  0  0  0  0  0  0  0  0  0  0  0
    1.5661   -0.5061    0.0000 C   0  0  0  0  0  0  0  0  0  0  0  0
    2.2806   -0.9186    0.0000 O   0  0  0  0  0  0  0  0  0  0  0  0
    2.9950   -0.5061    0.0000 C   0  0  0  0  0  0  0  0  0  0  0  0
    2.9950    0.3189    0.0000 O   0  0  0  0  0  0  0  0  0  0  0  0
    3.7095   -0.9186    0.0000 C   0  0  0  0  0  0  0  0  0  0  0  0
    4.4240   -0.5061    0.0000 C   0  0  0  0  0  0  0  0  0  0  0  0
  1  2  1  0
  2  3  1  0
  3  4  1  0
  3  5  1  0
  5  6  1  0
  6  7  1  0
  7  8  2  0
  7  9  1  0
  9 10  2  0
M  END
>  <name>  (359) 
2-Propenoic acid, 2-methylbutyl ester

>  <Outcome>  (359) 
1

>  <SMILES>  (359) 
C=CC(=O)OCC(C)CC

$$$$

     RDKit          2D

 12 12  0  0  0  0  0  0  0  0999 V2000
    1.4289    2.4750    0.0000 O   0  0  0  0  0  0  0  0  0  0  0  0
    0.7145    2.0625    0.0000 C   0  0  0  0  0  0  0  0  0  0  0  0
   -0.0000    2.4750    0.0000 O   0  0  0  0  0  0  0  0  0  0  0  0
    0.7145    1.2375    0.0000 C   0  0  0  0  0  0  0  0  0  0  0  0
    1.4289    0.8250    0.0000 C   0  0  0  0  0  0  0  0  0  0  0  0
    1.4289    0.0000    0.0000 C   0  0  0  0  0  0  0  0  0  0  0  0
    0.7145   -0.4125    0.0000 C   0  0  0  0  0  0  0  0  0  0  0  0
   -0.0000    0.0000    0.0000 C   0  0  0  0  0  0  0  0  0  0  0  0
   -0.7145   -0.4125    0.0000 C   0  0  0  0  0  0  0  0  0  0  0  0
   -0.7145   -1.2375    0.0000 O   0  0  0  0  0  0  0  0  0  0  0  0
   -1.4289    0.0000    0.0000 O   0  0  0  0  0  0  0  0  0  0  0  0
   -0.0000    0.8250    0.0000 C   0  0  0  0  0  0  0  0  0  0  0  0
  1  2  2  0
  2  3  1  0
  2  4  1  0
  4  5  2  0
  5  6  1  0
  6  7  2  0
  7  8  1  0
  8  9  1  0
  9 10  2  0
  9 11  1  0
  8 12  2  0
  4 12  1  0
M  END
>  <name>  (360) 
benzene-1,3-dicarboxylic acid

>  <Outcome>  (360) 
0

>  <SMILES>  (360) 
O=C(O)c1cccc(C(=O)O)c1

$$$$

     RDKit          2D

 16 16  0  0  0  0  0  0  0  0999 V2000
    1.5125    2.1708    0.0000 C   0  0  0  0  0  0  0  0  0  0  0  0
    1.0103    1.5163    0.0000 Si  0  0  0  0  0  4  0  0  0  0  0  0
    0.5080    2.1708    0.0000 C   0  0  0  0  0  0  0  0  0  0  0  0
    1.7725    1.2005    0.0000 O   0  0  0  0  0  0  0  0  0  0  0  0
    2.0882    0.4383    0.0000 Si  0  0  0  0  0  4  0  0  0  0  0  0
    2.7427    0.9406    0.0000 C   0  0  0  0  0  0  0  0  0  0  0  0
    2.7427   -0.0639    0.0000 C   0  0  0  0  0  0  0  0  0  0  0  0
    1.7725   -0.3239    0.0000 O   0  0  0  0  0  0  0  0  0  0  0  0
    1.0103   -0.6396    0.0000 Si  0  0  0  0  0  4  0  0  0  0  0  0
    1.5125   -1.2941    0.0000 C   0  0  0  0  0  0  0  0  0  0  0  0
    0.5080   -1.2941    0.0000 C   0  0  0  0  0  0  0  0  0  0  0  0
    0.2481   -0.3239    0.0000 O   0  0  0  0  0  0  0  0  0  0  0  0
   -0.0677    0.4383    0.0000 Si  0  0  0  0  0  4  0  0  0  0  0  0
   -0.7222   -0.0639    0.0000 C   0  0  0  0  0  0  0  0  0  0  0  0
   -0.7222    0.9406    0.0000 C   0  0  0  0  0  0  0  0  0  0  0  0
    0.2481    1.2005    0.0000 O   0  0  0  0  0  0  0  0  0  0  0  0
  1  2  1  0
  2  3  1  0
  2  4  1  0
  4  5  1  0
  5  6  1  0
  5  7  1  0
  5  8  1  0
  8  9  1  0
  9 10  1  0
  9 11  1  0
  9 12  1  0
 12 13  1  0
 13 14  1  0
 13 15  1  0
 13 16  1  0
  2 16  1  0
M  END
>  <name>  (361) 
octamethyl-1,3,5,7,2,4,6,8-tetraoxatetrasilocane

>  <Outcome>  (361) 
0

>  <SMILES>  (361) 
C[Si]1(C)O[Si](C)(C)O[Si](C)(C)O[Si](C)(C)O1

$$$$

     RDKit          2D

 13  8  0  0  0  0  0  0  0  0999 V2000
    0.0000    0.0000    0.0000 N   0  0  0  0  0  4  0  0  0  0  0  0
    1.0000    0.0000    0.0000 N   0  0  0  0  0  4  0  0  0  0  0  0
    0.0000    1.5490    0.0000 O   0  0  0  0  0  1  0  0  0  0  0  0
    1.2990    2.2990    0.0000 S   0  0  0  0  0  0  0  0  0  0  0  0
    2.0490    1.0000    0.0000 O   0  0  0  0  0  0  0  0  0  0  0  0
    0.5490    3.5981    0.0000 O   0  0  0  0  0  0  0  0  0  0  0  0
    2.5981    3.0490    0.0000 O   0  0  0  0  0  1  0  0  0  0  0  0
    2.0000    0.0000    0.0000 O   0  0  0  0  0  1  0  0  0  0  0  0
    3.2990    0.7500    0.0000 S   0  0  0  0  0  0  0  0  0  0  0  0
    4.0490   -0.5490    0.0000 O   0  0  0  0  0  0  0  0  0  0  0  0
    2.5490    2.0490    0.0000 O   0  0  0  0  0  0  0  0  0  0  0  0
    4.5981    1.5000    0.0000 O   0  0  0  0  0  1  0  0  0  0  0  0
    0.0000    4.5981    0.0000 Fe  0  0  0  0  0 15  0  0  0  0  0  0
  3  4  1  0
  4  5  2  0
  4  6  2  0
  4  7  1  0
  8  9  1  0
  9 10  2  0
  9 11  2  0
  9 12  1  0
M  CHG  7   1   1   2   1   3  -1   7  -1   8  -1  12  -1  13   2
M  END
>  <name>  (362) 
diazanium;iron(2+);disulfate

>  <Outcome>  (362) 
2

>  <SMILES>  (362) 
O=S(=O)([O-])[O-].O=S(=O)([O-])[O-].[Fe+2].[NH4+].[NH4+]

$$$$

     RDKit          2D

  5  5  0  0  0  0  0  0  0  0999 V2000
    0.5660    1.1119    0.0000 C   0  0  0  0  0  0  0  0  0  0  0  0
    1.2335    0.6270    0.0000 C   0  0  0  0  0  0  0  0  0  0  0  0
    0.9785   -0.1576    0.0000 C   0  0  0  0  0  0  0  0  0  0  0  0
    0.1535   -0.1576    0.0000 S   0  0  0  0  0  0  0  0  0  0  0  0
   -0.1014    0.6270    0.0000 C   0  0  0  0  0  0  0  0  0  0  0  0
  1  2  1  0
  2  3  1  0
  3  4  1  0
  4  5  1  0
  1  5  1  0
M  END
>  <name>  (363) 
thiolane

>  <Outcome>  (363) 
0

>  <SMILES>  (363) 
C1CCSC1

$$$$

     RDKit          2D

 15 16  0  0  0  0  0  0  0  0999 V2000
    0.8838   -2.1500    0.0000 O   0  0  0  0  0  0  0  0  0  0  0  0
    1.1387   -1.3654    0.0000 C   0  0  0  0  0  0  0  0  0  0  0  0
    0.6538   -0.6979    0.0000 O   0  0  0  0  0  0  0  0  0  0  0  0
    1.1387   -0.0305    0.0000 C   0  0  0  0  0  0  0  0  0  0  0  0
    0.8838    0.7541    0.0000 O   0  0  0  0  0  0  0  0  0  0  0  0
    1.9233   -0.2854    0.0000 C   0  0  0  0  0  0  0  0  0  0  0  0
    2.6378    0.1271    0.0000 C   0  0  0  0  0  0  0  0  0  0  0  0
    2.6378    0.9521    0.0000 Br  0  0  0  0  0  0  0  0  0  0  0  0
    3.3523   -0.2854    0.0000 C   0  0  0  0  0  0  0  0  0  0  0  0
    4.0668    0.1271    0.0000 Br  0  0  0  0  0  0  0  0  0  0  0  0
    3.3523   -1.1104    0.0000 C   0  0  0  0  0  0  0  0  0  0  0  0
    4.0668   -1.5229    0.0000 Br  0  0  0  0  0  0  0  0  0  0  0  0
    2.6378   -1.5229    0.0000 C   0  0  0  0  0  0  0  0  0  0  0  0
    2.6378   -2.3479    0.0000 Br  0  0  0  0  0  0  0  0  0  0  0  0
    1.9233   -1.1104    0.0000 C   0  0  0  0  0  0  0  0  0  0  0  0
  1  2  2  0
  2  3  1  0
  3  4  1  0
  4  5  2  0
  4  6  1  0
  6  7  2  0
  7  8  1  0
  7  9  1  0
  9 10  1  0
  9 11  2  0
 11 12  1  0
 11 13  1  0
 13 14  1  0
 13 15  2  0
  6 15  1  0
  2 15  1  0
M  END
>  <name>  (364) 
tetrabromo-1,3-dihydro-2-benzofuran-1,3-dione

>  <Outcome>  (364) 
0

>  <SMILES>  (364) 
O=C1OC(=O)c2c(Br)c(Br)c(Br)c(Br)c21

$$$$

     RDKit          2D

  5  4  0  0  0  0  0  0  0  0999 V2000
    0.8214    1.4289    0.0000 C   0  0  0  0  0  0  0  0  0  0  0  0
    1.2339    0.7145    0.0000 C   0  0  0  0  0  0  0  0  0  0  0  0
    0.8214   -0.0000    0.0000 C   0  0  0  0  0  0  0  0  0  0  0  0
    1.2339   -0.7145    0.0000 O   0  0  0  0  0  0  0  0  0  0  0  0
   -0.0036   -0.0000    0.0000 Cl  0  0  0  0  0  0  0  0  0  0  0  0
  1  2  1  0
  2  3  1  0
  3  4  2  0
  3  5  1  0
M  END
>  <name>  (365) 
propanoyl chloride

>  <Outcome>  (365) 
1

>  <SMILES>  (365) 
CCC(=O)Cl

$$$$

     RDKit          2D

  8  7  0  0  0  0  0  0  0  0999 V2000
    1.9125   -0.5631    0.0000 C   0  0  0  0  0  0  0  0  0  0  0  0
    1.9125    0.2619    0.0000 C   0  0  0  0  0  0  0  0  0  0  0  0
    1.1980    0.6744    0.0000 C   0  0  0  0  0  0  0  0  0  0  0  0
    0.4835    0.2619    0.0000 C   0  0  0  0  0  0  0  0  0  0  0  0
   -0.2309    0.6744    0.0000 C   0  0  0  0  0  0  0  0  0  0  0  0
   -0.9454    1.0869    0.0000 N   0  0  0  0  0  0  0  0  0  0  0  0
    2.6270    0.6744    0.0000 C   0  0  0  0  0  0  0  0  0  0  0  0
    3.3414    1.0869    0.0000 N   0  0  0  0  0  0  0  0  0  0  0  0
  1  2  1  0
  2  3  1  0
  3  4  1  0
  4  5  1  0
  5  6  3  0
  2  7  1  0
  7  8  3  0
M  END
>  <name>  (366) 
2-Methylpentanedinitrile

>  <Outcome>  (366) 
1

>  <SMILES>  (366) 
CC(C#N)CCC#N

$$$$

     RDKit          2D

 32 32  0  0  0  0  0  0  0  0999 V2000
   -4.4088   -2.1961    0.0000 C   0  0  0  0  0  0  0  0  0  0  0  0
   -3.8687   -1.5725    0.0000 C   0  0  0  0  0  0  0  0  0  0  0  0
   -3.0586   -1.7284    0.0000 C   0  0  0  0  0  0  0  0  0  0  0  0
   -2.5185   -1.1047    0.0000 C   0  0  0  0  0  0  0  0  0  0  0  0
   -1.7084   -1.2606    0.0000 C   0  0  0  0  0  0  0  0  0  0  0  0
   -1.1683   -0.6370    0.0000 C   0  0  0  0  0  0  0  0  0  0  0  0
   -1.4383    0.1426    0.0000 C   0  0  0  0  0  0  0  0  0  0  0  0
   -2.2484    0.2985    0.0000 C   0  0  0  0  0  0  0  0  0  0  0  0
   -2.5185    1.0780    0.0000 C   0  0  0  0  0  0  0  0  0  0  0  0
   -0.3581   -0.7929    0.0000 C   0  0  0  0  0  0  0  0  0  0  0  0
    0.1820   -0.1693    0.0000 O   0  0  0  0  0  0  0  0  0  0  0  0
    0.9921   -0.3252    0.0000 C   0  0  0  0  0  0  0  0  0  0  0  0
    1.2621   -1.1047    0.0000 O   0  0  0  0  0  0  0  0  0  0  0  0
    1.5322    0.2985    0.0000 C   0  0  0  0  0  0  0  0  0  0  0  0
    1.2621    1.0780    0.0000 C   0  0  0  0  0  0  0  0  0  0  0  0
    1.8022    1.7017    0.0000 C   0  0  0  0  0  0  0  0  0  0  0  0
    2.6124    1.5458    0.0000 C   0  0  0  0  0  0  0  0  0  0  0  0
    2.8824    0.7662    0.0000 C   0  0  0  0  0  0  0  0  0  0  0  0
    2.3423    0.1426    0.0000 C   0  0  0  0  0  0  0  0  0  0  0  0
    2.6124   -0.6370    0.0000 C   0  0  0  0  0  0  0  0  0  0  0  0
    3.4225   -0.7929    0.0000 O   0  0  0  0  0  0  0  0  0  0  0  0
    2.0723   -1.2606    0.0000 O   0  0  0  0  0  0  0  0  0  0  0  0
    2.3423   -2.0402    0.0000 C   0  0  0  0  0  0  0  0  0  0  0  0
    3.1524   -2.1961    0.0000 C   0  0  0  0  0  0  0  0  0  0  0  0
    3.4225   -2.9756    0.0000 C   0  0  0  0  0  0  0  0  0  0  0  0
    4.2326   -3.1316    0.0000 C   0  0  0  0  0  0  0  0  0  0  0  0
    4.5027   -3.9111    0.0000 C   0  0  0  0  0  0  0  0  0  0  0  0
    3.6925   -1.5725    0.0000 C   0  0  0  0  0  0  0  0  0  0  0  0
    4.5027   -1.7284    0.0000 C   0  0  0  0  0  0  0  0  0  0  0  0
    5.0428   -1.1047    0.0000 C   0  0  0  0  0  0  0  0  0  0  0  0
    5.8529   -1.2606    0.0000 C   0  0  0  0  0  0  0  0  0  0  0  0
    6.3930   -0.6370    0.0000 C   0  0  0  0  0  0  0  0  0  0  0  0
  1  2  1  0
  2  3  1  0
  3  4  1  0
  4  5  1  0
  5  6  1  0
  6  7  1  0
  7  8  1  0
  8  9  1  0
  6 10  1  0
 10 11  1  0
 11 12  1  0
 12 13  2  0
 12 14  1  0
 14 15  2  0
 15 16  1  0
 16 17  2  0
 17 18  1  0
 18 19  2  0
 14 19  1  0
 19 20  1  0
 20 21  2  0
 20 22  1  0
 22 23  1  0
 23 24  1  0
 24 25  1  0
 25 26  1  0
 26 27  1  0
 24 28  1  0
 28 29  1  0
 29 30  1  0
 30 31  1  0
 31 32  1  0
M  END
>  <name>  (367) 
1,2-bis(2-propylheptyl) benzene-1,2-dicarboxylate

>  <Outcome>  (367) 
0

>  <SMILES>  (367) 
CCCCCC(CCC)COC(=O)c1ccccc1C(=O)OCC(CCC)CCCCC

$$$$

     RDKit          2D

  8  7  0  0  0  0  0  0  0  0999 V2000
    0.0000    0.0000    0.0000 C   0  0  0  0  0  0  0  0  0  0  0  0
    1.2990    0.7500    0.0000 C   0  0  0  0  0  0  0  0  0  0  0  0
    2.5981   -0.0000    0.0000 C   0  0  0  0  0  0  0  0  0  0  0  0
    3.8971    0.7500    0.0000 C   0  0  0  0  0  0  0  0  0  0  0  0
    3.1471    2.0490    0.0000 C   0  0  0  0  0  0  0  0  0  0  0  0
    4.6471   -0.5490    0.0000 C   0  0  0  0  0  0  0  0  0  0  0  0
    5.1962    1.5000    0.0000 O   0  0  0  0  0  0  0  0  0  0  0  0
    1.2990    2.2500    0.0000 O   0  0  0  0  0  0  0  0  0  0  0  0
  1  2  1  0
  2  3  1  0
  3  4  1  0
  4  5  1  0
  4  6  1  0
  4  7  1  0
  2  8  1  0
M  END
>  <name>  (368) 
2-methylpentane-2,4-diol

>  <Outcome>  (368) 
2

>  <SMILES>  (368) 
CC(O)CC(C)(C)O

$$$$

     RDKit          2D

  4  3  0  0  0  0  0  0  0  0999 V2000
    2.0605   -0.7179    0.0000 C   0  0  0  0  0  0  0  0  0  0  0  0
    1.2355   -0.7179    0.0000 C   0  0  0  0  0  0  0  0  0  0  0  0
    0.8230   -0.0034    0.0000 C   0  0  0  0  0  0  0  0  0  0  0  0
   -0.0020   -0.0034    0.0000 Br  0  0  0  0  0  0  0  0  0  0  0  0
  1  2  2  0
  2  3  1  0
  3  4  1  0
M  END
>  <name>  (369) 
3-bromoprop-1-ene

>  <Outcome>  (369) 
1

>  <SMILES>  (369) 
C=CCBr

$$$$

     RDKit          2D

  9  8  0  0  0  0  0  0  0  0999 V2000
   -0.0001    0.2152    0.0000 C   0  0  0  0  0  0  0  0  0  0  0  0
    0.7144   -0.1973    0.0000 O   0  0  0  0  0  0  0  0  0  0  0  0
    1.4288    0.2152    0.0000 C   0  0  0  0  0  0  0  0  0  0  0  0
    2.1433   -0.1973    0.0000 C   0  0  0  0  0  0  0  0  0  0  0  0
    2.8578    0.2152    0.0000 O   0  0  0  0  0  0  0  0  0  0  0  0
    3.5723   -0.1973    0.0000 C   0  0  0  0  0  0  0  0  0  0  0  0
    4.2867    0.2152    0.0000 C   0  0  0  0  0  0  0  0  0  0  0  0
    5.0012   -0.1973    0.0000 O   0  0  0  0  0  0  0  0  0  0  0  0
    5.7157    0.2152    0.0000 C   0  0  0  0  0  0  0  0  0  0  0  0
  1  2  1  0
  2  3  1  0
  3  4  1  0
  4  5  1  0
  5  6  1  0
  6  7  1  0
  7  8  1  0
  8  9  1  0
M  END
>  <name>  (370) 
Diethylene glycol dimethyl ether

>  <Outcome>  (370) 
0

>  <SMILES>  (370) 
COCCOCCOC

$$$$

     RDKit          2D

 43 47  0  0  0  0  0  0  0  0999 V2000
    3.6448   -2.9141    0.0000 C   0  0  0  0  0  0  0  0  0  0  0  0
    4.3593   -2.5016    0.0000 C   0  0  0  0  0  0  0  0  0  0  0  0
    4.3593   -1.6766    0.0000 C   0  0  0  0  0  0  0  0  0  0  0  0
    3.6448   -1.2641    0.0000 N   0  0  0  0  0  0  0  0  0  0  0  0
    3.6448   -0.4391    0.0000 C   0  0  0  0  0  0  0  0  0  0  0  0
    4.3593   -0.0266    0.0000 C   0  0  0  0  0  0  0  0  0  0  0  0
    4.3593    0.7984    0.0000 C   0  0  0  0  0  0  0  0  0  0  0  0
    5.0738    1.2109    0.0000 S   0  0  0  0  0  0  0  0  0  0  0  0
    5.7882    1.6234    0.0000 O   0  0  0  0  0  0  0  0  0  0  0  0
    4.6613    1.9254    0.0000 O   0  0  0  0  0  0  0  0  0  0  0  0
    5.4863    0.4964    0.0000 O   0  0  0  0  0  0  0  0  0  0  0  0
    3.6448    1.2109    0.0000 C   0  0  0  0  0  0  0  0  0  0  0  0
    3.6448    2.0359    0.0000 N   0  0  0  0  0  0  0  0  0  0  0  0
    2.9304    0.7984    0.0000 C   0  0  0  0  0  0  0  0  0  0  0  0
    2.9304   -0.0266    0.0000 C   0  0  0  0  0  0  0  0  0  0  0  0
    2.2159   -0.4391    0.0000 C   0  0  0  0  0  0  0  0  0  0  0  0
    2.2159   -1.2641    0.0000 O   0  0  0  0  0  0  0  0  0  0  0  0
    1.5014   -0.0266    0.0000 C   0  0  0  0  0  0  0  0  0  0  0  0
    0.7869   -0.4391    0.0000 C   0  0  0  0  0  0  0  0  0  0  0  0
    0.0725   -0.0266    0.0000 C   0  0  0  0  0  0  0  0  0  0  0  0
    0.0725    0.7984    0.0000 C   0  0  0  0  0  0  0  0  0  0  0  0
    0.7869    1.2109    0.0000 C   0  0  0  0  0  0  0  0  0  0  0  0
    1.5014    0.7984    0.0000 C   0  0  0  0  0  0  0  0  0  0  0  0
    2.2159    1.2109    0.0000 C   0  0  0  0  0  0  0  0  0  0  0  0
    2.2159    2.0359    0.0000 O   0  0  0  0  0  0  0  0  0  0  0  0
    5.0738   -1.2641    0.0000 C   0  0  0  0  0  0  0  0  0  0  0  0
    5.7882   -1.6766    0.0000 C   0  0  0  0  0  0  0  0  0  0  0  0
    6.5027   -1.2641    0.0000 S   0  0  0  0  0  0  0  0  0  0  0  0
    7.2172   -0.8516    0.0000 O   0  0  0  0  0  0  0  0  0  0  0  0
    6.9152   -1.9786    0.0000 O   0  0  0  0  0  0  0  0  0  0  0  0
    6.0902   -0.5496    0.0000 O   0  0  0  0  0  0  0  0  0  0  0  0
    5.7882   -2.5016    0.0000 C   0  0  0  0  0  0  0  0  0  0  0  0
    5.0738   -2.9141    0.0000 C   0  0  0  0  0  0  0  0  0  0  0  0
    5.0738   -3.7391    0.0000 N   0  0  0  0  0  0  0  0  0  0  0  0
    4.3593   -4.1516    0.0000 C   0  0  0  0  0  0  0  0  0  0  0  0
    3.6448   -3.7391    0.0000 N   0  0  0  0  0  0  0  0  0  0  0  0
    2.9304   -4.1516    0.0000 C   0  0  0  0  0  0  0  0  0  0  0  0
    2.2159   -3.7391    0.0000 F   0  0  0  0  0  0  0  0  0  0  0  0
    2.9304   -4.9766    0.0000 N   0  0  0  0  0  0  0  0  0  0  0  0
    3.6448   -5.3891    0.0000 C   0  0  0  0  0  0  0  0  0  0  0  0
    3.6448   -6.2141    0.0000 F   0  0  0  0  0  0  0  0  0  0  0  0
    4.3593   -4.9766    0.0000 C   0  0  0  0  0  0  0  0  0  0  0  0
    5.0738   -5.3891    0.0000 Cl  0  0  0  0  0  0  0  0  0  0  0  0
  1  2  1  0
  2  3  2  0
  3  4  1  0
  4  5  1  0
  5  6  2  0
  6  7  1  0
  7  8  1  0
  8  9  2  0
  8 10  2  0
  8 11  1  0
  7 12  2  0
 12 13  1  0
 12 14  1  0
 14 15  2  0
  5 15  1  0
 15 16  1  0
 16 17  2  0
 16 18  1  0
 18 19  2  0
 19 20  1  0
 20 21  2  0
 21 22  1  0
 22 23  2  0
 18 23  1  0
 23 24  1  0
 14 24  1  0
 24 25  2  0
  3 26  1  0
 26 27  2  0
 27 28  1  0
 28 29  2  0
 28 30  2  0
 28 31  1  0
 27 32  1  0
 32 33  2  0
  2 33  1  0
 33 34  1  0
 34 35  1  0
 35 36  2  0
 36 37  1  0
 37 38  1  0
 37 39  2  0
 39 40  1  0
 40 41  1  0
 40 42  2  0
 35 42  1  0
 42 43  1  0
M  END
>  <name>  (371) 
disodium 1-amino-4-({3-[(5-chloro-2,6-difluoropyrimidin-4-yl)amino]-2-methyl-5-sulfonatophenyl}amino)-9,10-dioxo-9,10-dihydroanthracene-2-sulfonate

>  <Outcome>  (371) 
0

>  <SMILES>  (371) 
Cc1c(Nc2cc(S(=O)(=O)O)c(N)c3c2C(=O)c2ccccc2C3=O)cc(S(=O)(=O)O)cc1Nc1nc(F)nc(F)c1Cl

$$$$

     RDKit          2D

  8  8  0  0  0  0  0  0  0  0999 V2000
    1.4289    0.8250    0.0000 N   0  0  0  0  0  0  0  0  0  0  0  0
    0.7145    0.4125    0.0000 C   0  0  0  0  0  0  0  0  0  0  0  0
    0.0000    0.8250    0.0000 C   0  0  0  0  0  0  0  0  0  0  0  0
   -0.7145    0.4125    0.0000 C   0  0  0  0  0  0  0  0  0  0  0  0
   -0.7145   -0.4125    0.0000 C   0  0  0  0  0  0  0  0  0  0  0  0
   -1.4289   -0.8250    0.0000 N   0  0  0  0  0  0  0  0  0  0  0  0
   -0.0000   -0.8250    0.0000 C   0  0  0  0  0  0  0  0  0  0  0  0
    0.7145   -0.4125    0.0000 C   0  0  0  0  0  0  0  0  0  0  0  0
  1  2  1  0
  3  2  2  0
  4  3  1  0
  5  4  2  0
  5  6  1  0
  7  5  1  0
  8  7  2  0
  2  8  1  0
M  END
>  <name>  (372) 
1,4-Benzenediamine

>  <Outcome>  (372) 
1

>  <SMILES>  (372) 
Nc1ccc(N)cc1

$$$$

     RDKit          2D

  8  8  0  0  0  0  0  0  0  0999 V2000
    1.8492    2.2324    0.0000 O   0  0  0  0  0  0  0  0  0  0  0  0
    1.8492    1.4074    0.0000 C   0  0  0  0  0  0  0  0  0  0  0  0
    1.1347    0.9949    0.0000 N   0  0  0  0  0  0  0  0  0  0  0  0
    1.1347    0.1699    0.0000 C   0  0  0  0  0  0  0  0  0  0  0  0
    0.4203   -0.2426    0.0000 C   0  0  0  0  0  0  0  0  0  0  0  0
   -0.2942    0.1699    0.0000 O   0  0  0  0  0  0  0  0  0  0  0  0
   -0.2942    0.9949    0.0000 C   0  0  0  0  0  0  0  0  0  0  0  0
    0.4203    1.4074    0.0000 C   0  0  0  0  0  0  0  0  0  0  0  0
  1  2  2  0
  2  3  1  0
  3  4  1  0
  4  5  1  0
  5  6  1  0
  6  7  1  0
  7  8  1  0
  3  8  1  0
M  END
>  <name>  (373) 
morpholine-4-carbaldehyde

>  <Outcome>  (373) 
0

>  <SMILES>  (373) 
O=CN1CCOCC1

$$$$

     RDKit          2D

  8  8  0  0  0  0  0  0  0  0999 V2000
    1.4684    0.6777    0.0000 N   0  0  0  0  0  0  0  0  0  0  0  0
    0.7540    0.2652    0.0000 C   0  0  0  0  0  0  0  0  0  0  0  0
    0.0395    0.6777    0.0000 C   0  0  0  0  0  0  0  0  0  0  0  0
   -0.6750    0.2652    0.0000 C   0  0  0  0  0  0  0  0  0  0  0  0
   -0.6750   -0.5598    0.0000 C   0  0  0  0  0  0  0  0  0  0  0  0
   -1.3895   -0.9723    0.0000 Cl  0  0  0  0  0  0  0  0  0  0  0  0
    0.0395   -0.9723    0.0000 C   0  0  0  0  0  0  0  0  0  0  0  0
    0.7540   -0.5598    0.0000 C   0  0  0  0  0  0  0  0  0  0  0  0
  1  2  1  0
  3  2  2  0
  4  3  1  0
  5  4  2  0
  5  6  1  0
  7  5  1  0
  8  7  2  0
  2  8  1  0
M  END
>  <name>  (374) 
4-Chloroaniline

>  <Outcome>  (374) 
1

>  <SMILES>  (374) 
Nc1ccc(Cl)cc1

$$$$

     RDKit          2D

  7  7  0  0  0  0  0  0  0  0999 V2000
    0.7145    2.0625    0.0000 C   0  0  0  0  0  0  0  0  0  0  0  0
    0.7145    1.2375    0.0000 C   0  0  0  0  0  0  0  0  0  0  0  0
    1.4289    0.8250    0.0000 C   0  0  0  0  0  0  0  0  0  0  0  0
    1.4289    0.0000    0.0000 C   0  0  0  0  0  0  0  0  0  0  0  0
    0.7145   -0.4125    0.0000 C   0  0  0  0  0  0  0  0  0  0  0  0
    0.0000    0.0000    0.0000 C   0  0  0  0  0  0  0  0  0  0  0  0
    0.0000    0.8250    0.0000 C   0  0  0  0  0  0  0  0  0  0  0  0
  1  2  1  0
  2  3  2  0
  3  4  1  0
  4  5  2  0
  5  6  1  0
  6  7  2  0
  2  7  1  0
M  END
>  <name>  (375) 
toluene

>  <Outcome>  (375) 
0

>  <SMILES>  (375) 
Cc1ccccc1

$$$$

     RDKit          2D

  1  0  0  0  0  0  0  0  0  0999 V2000
    0.0000    0.0000    0.0000 Si  0  0  0  0  0 15  0  0  0  0  0  0
M  END
>  <name>  (376) 
silicon

>  <Outcome>  (376) 
2

>  <SMILES>  (376) 
[Si]

$$$$

     RDKit          2D

 10 10  0  0  0  0  0  0  0  0999 V2000
    1.5000    0.0000    0.0000 C   0  0  0  0  0  0  0  0  0  0  0  0
    0.7500   -1.2990    0.0000 C   0  0  0  0  0  0  0  0  0  0  0  0
   -0.7500   -1.2990    0.0000 C   0  0  0  0  0  0  0  0  0  0  0  0
   -1.5000    0.0000    0.0000 C   0  0  0  0  0  0  0  0  0  0  0  0
   -0.7500    1.2990    0.0000 C   0  0  0  0  0  0  0  0  0  0  0  0
    0.7500    1.2990    0.0000 C   0  0  0  0  0  0  0  0  0  0  0  0
    1.5000    2.5981    0.0000 O   0  0  0  0  0  0  0  0  0  0  0  0
   -1.5000    2.5981    0.0000 Cl  0  0  0  0  0  0  0  0  0  0  0  0
   -3.0000    0.0000    0.0000 Cl  0  0  0  0  0  0  0  0  0  0  0  0
   -1.5000   -2.5981    0.0000 Cl  0  0  0  0  0  0  0  0  0  0  0  0
  1  2  2  0
  2  3  1  0
  3  4  2  0
  4  5  1  0
  5  6  2  0
  6  7  1  0
  5  8  1  0
  4  9  1  0
  3 10  1  0
  6  1  1  0
M  END
>  <name>  (377) 
2,3,4-trichlorophenol

>  <Outcome>  (377) 
2

>  <SMILES>  (377) 
Oc1ccc(Cl)c(Cl)c1Cl

$$$$

     RDKit          2D

  4  3  0  0  0  0  0  0  0  0999 V2000
    2.0625   -0.7145    0.0000 O   0  0  0  0  0  0  0  0  0  0  0  0
    1.2375   -0.7145    0.0000 C   0  0  0  0  0  0  0  0  0  0  0  0
    0.8250   -0.0000    0.0000 C   0  0  0  0  0  0  0  0  0  0  0  0
    0.0000   -0.0000    0.0000 S   0  0  0  0  0  0  0  0  0  0  0  0
  1  2  1  0
  2  3  1  0
  3  4  1  0
M  END
>  <name>  (378) 
2-sulfanylethan-1-ol

>  <Outcome>  (378) 
1

>  <SMILES>  (378) 
OCCS

$$$$

     RDKit          2D

  5  4  0  0  0  0  0  0  0  0999 V2000
    0.0000    0.0000    0.0000 C   0  0  0  0  0  0  0  0  0  0  0  0
    1.2990    0.7500    0.0000 C   0  0  0  0  0  0  0  0  0  0  0  0
    2.5981   -0.0000    0.0000 As  0  0  0  0  0  3  0  0  0  0  0  0
    3.8971    0.7500    0.0000 Cl  0  0  0  0  0  0  0  0  0  0  0  0
    2.5981   -1.5000    0.0000 Cl  0  0  0  0  0  0  0  0  0  0  0  0
  1  2  1  0
  2  3  1  0
  3  4  1  0
  3  5  1  0
M  END
>  <name>  (379) 
dichloro(ethyl)arsane

>  <Outcome>  (379) 
2

>  <SMILES>  (379) 
CC[As](Cl)Cl

$$$$

     RDKit          2D

  7  6  0  0  0  0  0  0  0  0999 V2000
   -0.1913    0.7146    0.0000 N   0  0  0  0  0  0  0  0  0  0  0  0
    0.5232    1.1271    0.0000 C   0  0  0  0  0  0  0  0  0  0  0  0
    0.5232    1.9521    0.0000 O   0  0  0  0  0  0  0  0  0  0  0  0
    1.2376    0.7146    0.0000 N   0  0  0  0  0  0  0  0  0  0  0  0
    1.9521    1.1271    0.0000 C   0  0  0  0  0  0  0  0  0  0  0  0
    2.6666    0.7146    0.0000 C   0  0  0  0  0  0  0  0  0  0  0  0
    3.3810    1.1271    0.0000 O   0  0  0  0  0  0  0  0  0  0  0  0
  1  2  1  0
  2  3  2  0
  2  4  1  0
  4  5  1  0
  5  6  1  0
  6  7  1  0
M  END
>  <name>  (380) 
1-(1-hydroxyethyl)urea

>  <Outcome>  (380) 
0

>  <SMILES>  (380) 
NC(=O)NCCO

$$$$

     RDKit          2D

 11 10  0  0  0  0  0  0  0  0999 V2000
    4.9500   -2.8579    0.0000 C   0  0  0  0  0  0  0  0  0  0  0  0
    4.1250   -2.8579    0.0000 C   0  0  0  0  0  0  0  0  0  0  0  0
    3.7125   -2.1434    0.0000 C   0  0  0  0  0  0  0  0  0  0  0  0
    2.8875   -2.1434    0.0000 C   0  0  0  0  0  0  0  0  0  0  0  0
    2.4750   -1.4289    0.0000 Sn  0  0  0  0  0  4  0  0  0  0  0  0
    3.1895   -1.0164    0.0000 Cl  0  0  0  0  0  0  0  0  0  0  0  0
    1.7605   -1.8414    0.0000 Cl  0  0  0  0  0  0  0  0  0  0  0  0
    2.0625   -0.7145    0.0000 C   0  0  0  0  0  0  0  0  0  0  0  0
    1.2375   -0.7145    0.0000 C   0  0  0  0  0  0  0  0  0  0  0  0
    0.8250   -0.0000    0.0000 C   0  0  0  0  0  0  0  0  0  0  0  0
   -0.0000   -0.0000    0.0000 C   0  0  0  0  0  0  0  0  0  0  0  0
  1  2  1  0
  2  3  1  0
  3  4  1  0
  4  5  1  0
  5  6  1  0
  5  7  1  0
  5  8  1  0
  8  9  1  0
  9 10  1  0
 10 11  1  0
M  END
>  <name>  (381) 
dibutylstannanebis(ylium) dichloride

>  <Outcome>  (381) 
1

>  <SMILES>  (381) 
CCCC[Sn](Cl)(Cl)CCCC

$$$$

     RDKit          2D

  8  7  0  0  0  0  0  0  0  0999 V2000
    0.0000    0.0000    0.0000 C   0  0  0  0  0  0  0  0  0  0  0  0
    1.2990    0.7500    0.0000 C   0  0  0  0  0  0  0  0  0  0  0  0
    2.5981   -0.0000    0.0000 C   0  0  0  0  0  0  0  0  0  0  0  0
    3.8971    0.7500    0.0000 C   0  0  0  0  0  0  0  0  0  0  0  0
    5.1962   -0.0000    0.0000 O   0  0  0  0  0  0  0  0  0  0  0  0
    6.4952    0.7500    0.0000 C   0  0  0  0  0  0  0  0  0  0  0  0
    7.7942   -0.0000    0.0000 O   0  0  0  0  0  0  0  0  0  0  0  0
    6.4952    2.2500    0.0000 Cl  0  0  0  0  0  0  0  0  0  0  0  0
  1  2  1  0
  2  3  1  0
  3  4  1  0
  4  5  1  0
  5  6  1  0
  6  7  2  0
  6  8  1  0
M  END
>  <name>  (382) 
butyl carbonochloridate

>  <Outcome>  (382) 
2

>  <SMILES>  (382) 
CCCCOC(=O)Cl

$$$$

     RDKit          2D

  7  6  0  0  0  0  0  0  0  0999 V2000
    1.2690    1.5325    0.0000 C   0  0  0  0  0  0  0  0  0  0  0  0
    0.8565    0.8180    0.0000 C   0  0  0  0  0  0  0  0  0  0  0  0
    0.0315    0.8180    0.0000 C   0  0  0  0  0  0  0  0  0  0  0  0
    1.2690    0.1036    0.0000 C   0  0  0  0  0  0  0  0  0  0  0  0
    0.8565   -0.6109    0.0000 C   0  0  0  0  0  0  0  0  0  0  0  0
    1.2690   -1.3254    0.0000 Cl  0  0  0  0  0  0  0  0  0  0  0  0
    0.0315   -0.6109    0.0000 O   0  0  0  0  0  0  0  0  0  0  0  0
  1  2  1  0
  2  3  1  0
  2  4  1  0
  4  5  1  0
  5  6  1  0
  5  7  2  0
M  END
>  <name>  (383) 
Butanoyl chloride, 3-methyl-

>  <Outcome>  (383) 
1

>  <SMILES>  (383) 
CC(C)CC(=O)Cl

$$$$

     RDKit          2D

  2  1  0  0  0  0  0  0  0  0999 V2000
    0.0000    0.0000    0.0000 O   0  0  0  0  0  0  0  0  0  0  0  0
    1.2990    0.7500    0.0000 Nb  0  0  0  0  0  2  0  0  0  0  0  0
  1  2  2  0
M  RAD  1   2   2
M  END
>  <name>  (384) 
oxoniobium

>  <Outcome>  (384) 
2

>  <SMILES>  (384) 
O=[Nb]

$$$$

     RDKit          2D

  9  9  0  0  0  0  0  0  0  0999 V2000
    3.7500   -1.2990    0.0000 C   0  0  0  0  0  0  0  0  0  0  0  0
    3.0000    0.0000    0.0000 N   0  0  0  0  0  0  0  0  0  0  0  0
    1.5000    0.0000    0.0000 C   0  0  0  0  0  0  0  0  0  0  0  0
    0.7500   -1.2990    0.0000 C   0  0  0  0  0  0  0  0  0  0  0  0
   -0.7500   -1.2990    0.0000 C   0  0  0  0  0  0  0  0  0  0  0  0
   -1.5000    0.0000    0.0000 C   0  0  0  0  0  0  0  0  0  0  0  0
   -0.7500    1.2990    0.0000 C   0  0  0  0  0  0  0  0  0  0  0  0
    0.7500    1.2990    0.0000 C   0  0  0  0  0  0  0  0  0  0  0  0
   -3.0000    0.0000    0.0000 O   0  0  0  0  0  0  0  0  0  0  0  0
  1  2  1  0
  2  3  1  0
  3  4  2  0
  4  5  1  0
  5  6  2  0
  6  7  1  0
  7  8  2  0
  6  9  1  0
  8  3  1  0
M  END
>  <name>  (385) 
4-(methylamino)phenol

>  <Outcome>  (385) 
2

>  <SMILES>  (385) 
CNc1ccc(O)cc1

$$$$

     RDKit          2D

  8  8  0  0  0  0  0  0  0  0999 V2000
    1.5033    1.0791    0.0000 N   0  0  0  0  0  0  0  0  0  0  0  0
    0.7888    0.6666    0.0000 C   0  0  0  0  0  0  0  0  0  0  0  0
    0.0743    1.0791    0.0000 C   0  0  0  0  0  0  0  0  0  0  0  0
   -0.6402    0.6666    0.0000 C   0  0  0  0  0  0  0  0  0  0  0  0
   -0.6402   -0.1584    0.0000 C   0  0  0  0  0  0  0  0  0  0  0  0
    0.0743   -0.5709    0.0000 C   0  0  0  0  0  0  0  0  0  0  0  0
    0.7888   -0.1584    0.0000 C   0  0  0  0  0  0  0  0  0  0  0  0
    1.5033   -0.5709    0.0000 N   0  0  0  0  0  0  0  0  0  0  0  0
  1  2  1  0
  3  2  1  0
  4  3  1  0
  5  4  1  0
  6  5  1  0
  7  6  1  0
  7  8  1  0
  2  7  1  0
M  END
>  <name>  (386) 
1,2-Cyclohexanediamine

>  <Outcome>  (386) 
1

>  <SMILES>  (386) 
NC1CCCCC1N

$$$$

     RDKit          2D

 12 11  0  0  0  0  0  0  0  0999 V2000
    2.2836    2.1434    0.0000 N   0  0  0  0  0  0  0  0  0  0  0  0
    2.9980    2.5559    0.0000 N   0  0  0  0  0  0  0  0  0  0  0  0
    3.7125    2.1434    0.0000 C   0  0  0  0  0  0  0  0  0  0  0  0
    3.7125    1.3184    0.0000 O   0  0  0  0  0  0  0  0  0  0  0  0
    4.4270    2.5559    0.0000 C   0  0  0  0  0  0  0  0  0  0  0  0
    5.1414    2.1434    0.0000 C   0  0  0  0  0  0  0  0  0  0  0  0
    5.8559    2.5559    0.0000 C   0  0  0  0  0  0  0  0  0  0  0  0
    6.5704    2.1434    0.0000 C   0  0  0  0  0  0  0  0  0  0  0  0
    7.2849    2.5559    0.0000 C   0  0  0  0  0  0  0  0  0  0  0  0
    7.2849    3.3809    0.0000 O   0  0  0  0  0  0  0  0  0  0  0  0
    7.9993    2.1434    0.0000 N   0  0  0  0  0  0  0  0  0  0  0  0
    8.7138    2.5559    0.0000 N   0  0  0  0  0  0  0  0  0  0  0  0
  1  2  1  0
  2  3  1  0
  3  4  2  0
  3  5  1  0
  5  6  1  0
  6  7  1  0
  7  8  1  0
  8  9  1  0
  9 10  2  0
  9 11  1  0
 11 12  1  0
M  END
>  <name>  (387) 
hexanedihydrazide

>  <Outcome>  (387) 
0

>  <SMILES>  (387) 
NNC(=O)CCCCC(=O)NN

$$$$

     RDKit          2D

  4  3  0  0  0  0  0  0  0  0999 V2000
    0.9311   -0.2534    0.0000 C   0  0  0  0  0  0  0  0  0  0  0  0
    0.5186    0.4611    0.0000 C   0  0  0  0  0  0  0  0  0  0  0  0
   -0.3064    0.4611    0.0000 C   0  0  0  0  0  0  0  0  0  0  0  0
   -1.1314    0.4611    0.0000 N   0  0  0  0  0  0  0  0  0  0  0  0
  1  2  1  0
  2  3  1  0
  3  4  3  0
M  END
>  <name>  (388) 
Propionitrile

>  <Outcome>  (388) 
1

>  <SMILES>  (388) 
CCC#N

$$$$

     RDKit          2D

 13 14  0  0  0  0  0  0  0  0999 V2000
    0.7145   -0.4125    0.0000 O   0  0  0  0  0  0  0  0  0  0  0  0
    0.7145   -1.2375    0.0000 C   0  0  0  0  0  0  0  0  0  0  0  0
    1.3819   -1.7224    0.0000 C   0  0  0  0  0  0  0  0  0  0  0  0
    1.1270   -2.5070    0.0000 C   0  0  0  0  0  0  0  0  0  0  0  0
    0.3020   -2.5070    0.0000 C   0  0  0  0  0  0  0  0  0  0  0  0
   -0.1829   -3.1745    0.0000 O   0  0  0  0  0  0  0  0  0  0  0  0
    0.0470   -1.7224    0.0000 N   0  0  0  0  0  0  0  0  0  0  0  0
   -0.7376   -1.4675    0.0000 C   0  0  0  0  0  0  0  0  0  0  0  0
   -1.3507   -2.0195    0.0000 C   0  0  0  0  0  0  0  0  0  0  0  0
   -2.1353   -1.7646    0.0000 C   0  0  0  0  0  0  0  0  0  0  0  0
   -2.3068   -0.9576    0.0000 C   0  0  0  0  0  0  0  0  0  0  0  0
   -1.6937   -0.4056    0.0000 C   0  0  0  0  0  0  0  0  0  0  0  0
   -0.9091   -0.6605    0.0000 C   0  0  0  0  0  0  0  0  0  0  0  0
  1  2  2  0
  2  3  1  0
  3  4  2  0
  4  5  1  0
  5  6  2  0
  5  7  1  0
  2  7  1  0
  7  8  1  0
  8  9  2  0
  9 10  1  0
 10 11  2  0
 11 12  1  0
 12 13  2  0
  8 13  1  0
M  END
>  <name>  (389) 
1-phenyl-2,5-dihydro-1H-pyrrole-2,5-dione

>  <Outcome>  (389) 
1

>  <SMILES>  (389) 
O=C1C=CC(=O)N1c1ccccc1

$$$$

     RDKit          2D

  7  6  0  0  0  0  0  0  0  0999 V2000
    0.0000    0.0000    0.0000 C   0  0  0  0  0  0  0  0  0  0  0  0
    1.2990    0.7500    0.0000 C   0  0  0  0  0  0  0  0  0  0  0  0
    2.5981   -0.0000    0.0000 N   0  0  0  0  0  0  0  0  0  0  0  0
    3.8971    0.7500    0.0000 C   0  0  0  0  0  0  0  0  0  0  0  0
    5.1962   -0.0000    0.0000 C   0  0  0  0  0  0  0  0  0  0  0  0
    6.4952    0.7500    0.0000 N   0  0  0  0  0  0  0  0  0  0  0  0
   -1.2990    0.7500    0.0000 N   0  0  0  0  0  0  0  0  0  0  0  0
  1  2  1  0
  2  3  1  0
  3  4  1  0
  4  5  1  0
  5  6  1  0
  1  7  1  0
M  END
>  <name>  (390) 
N'-(2-aminoethyl)ethane-1,2-diamine

>  <Outcome>  (390) 
2

>  <SMILES>  (390) 
NCCNCCN

$$$$

     RDKit          2D

  9  9  0  0  0  0  0  0  0  0999 V2000
    0.7145    2.0625    0.0000 C   0  0  0  0  0  0  0  0  0  0  0  0
    0.7145    1.2375    0.0000 C   0  0  0  0  0  0  0  0  0  0  0  0
    1.4289    0.8250    0.0000 C   0  0  0  0  0  0  0  0  0  0  0  0
    1.4289   -0.0000    0.0000 C   0  0  0  0  0  0  0  0  0  0  0  0
    2.1434   -0.4125    0.0000 Cl  0  0  0  0  0  0  0  0  0  0  0  0
    0.7145   -0.4125    0.0000 C   0  0  0  0  0  0  0  0  0  0  0  0
    0.0000   -0.0000    0.0000 C   0  0  0  0  0  0  0  0  0  0  0  0
    0.0000    0.8250    0.0000 C   0  0  0  0  0  0  0  0  0  0  0  0
   -0.7145    1.2375    0.0000 O   0  0  0  0  0  0  0  0  0  0  0  0
  1  2  1  0
  2  3  2  0
  3  4  1  0
  4  5  1  0
  4  6  2  0
  6  7  1  0
  7  8  2  0
  2  8  1  0
  8  9  1  0
M  END
>  <name>  (391) 
4-chloro-2-methylphenol

>  <Outcome>  (391) 
1

>  <SMILES>  (391) 
Cc1cc(Cl)ccc1O

$$$$

     RDKit          2D

 13 13  0  0  0  0  0  0  0  0999 V2000
    0.0234    2.4277    0.0000 C   0  0  0  0  0  0  0  0  0  0  0  0
    0.7378    2.0152    0.0000 O   0  0  0  0  0  0  0  0  0  0  0  0
    0.7378    1.1902    0.0000 C   0  0  0  0  0  0  0  0  0  0  0  0
    1.4523    0.7777    0.0000 C   0  0  0  0  0  0  0  0  0  0  0  0
    1.4523   -0.0473    0.0000 C   0  0  0  0  0  0  0  0  0  0  0  0
    0.7378   -0.4598    0.0000 C   0  0  0  0  0  0  0  0  0  0  0  0
    0.7378   -1.2848    0.0000 C   0  0  0  0  0  0  0  0  0  0  0  0
    1.4523   -1.6973    0.0000 C   0  0  0  0  0  0  0  0  0  0  0  0
    2.1668   -2.1098    0.0000 N   0  0  0  0  0  0  0  0  0  0  0  0
    0.0234   -0.0473    0.0000 C   0  0  0  0  0  0  0  0  0  0  0  0
    0.0234    0.7777    0.0000 C   0  0  0  0  0  0  0  0  0  0  0  0
   -0.6911    1.1902    0.0000 O   0  0  0  0  0  0  0  0  0  0  0  0
   -0.6911    2.0152    0.0000 C   0  0  0  0  0  0  0  0  0  0  0  0
  1  2  1  0
  2  3  1  0
  3  4  2  0
  4  5  1  0
  5  6  2  0
  6  7  1  0
  7  8  1  0
  8  9  3  0
  6 10  1  0
 10 11  2  0
  3 11  1  0
 11 12  1  0
 12 13  1  0
M  END
>  <name>  (392) 
(3,4-dimethoxyphenyl)acetonitrile

>  <Outcome>  (392) 
0

>  <SMILES>  (392) 
COc1ccc(CC#N)cc1OC

$$$$

     RDKit          2D

 11 10  0  0  0  0  0  0  0  0999 V2000
   -0.8698   -0.5990    0.0000 C   0  0  0  0  0  0  0  0  0  0  0  0
   -0.1554   -1.0115    0.0000 C   0  0  0  0  0  0  0  0  0  0  0  0
   -0.1554   -1.8365    0.0000 C   0  0  0  0  0  0  0  0  0  0  0  0
   -0.8698   -2.2490    0.0000 C   0  0  0  0  0  0  0  0  0  0  0  0
   -0.8698   -3.0740    0.0000 O   0  0  0  0  0  0  0  0  0  0  0  0
   -1.5843   -1.8365    0.0000 Cl  0  0  0  0  0  0  0  0  0  0  0  0
    0.5591   -0.5990    0.0000 C   0  0  0  0  0  0  0  0  0  0  0  0
    0.5591    0.2260    0.0000 C   0  0  0  0  0  0  0  0  0  0  0  0
    0.5591    1.0510    0.0000 C   0  0  0  0  0  0  0  0  0  0  0  0
    1.3841    0.2260    0.0000 C   0  0  0  0  0  0  0  0  0  0  0  0
   -0.2659    0.2260    0.0000 C   0  0  0  0  0  0  0  0  0  0  0  0
  1  2  1  0
  2  3  1  0
  3  4  1  0
  4  5  2  0
  4  6  1  0
  2  7  1  0
  7  8  1  0
  8  9  1  0
  8 10  1  0
  8 11  1  0
M  END
>  <name>  (393) 
3,5,5-trimethylhexanoyl chloride

>  <Outcome>  (393) 
1

>  <SMILES>  (393) 
CC(CC(=O)Cl)CC(C)(C)C

$$$$

     RDKit          2D

 10 10  0  0  0  0  0  0  0  0999 V2000
    4.5000    0.0000    0.0000 C   0  0  0  0  0  0  0  0  0  0  0  0
    3.0000    0.0000    0.0000 Si  0  0  0  0  0  4  0  0  0  0  0  0
    1.5000    0.0000    0.0000 C   0  0  0  0  0  0  0  0  0  0  0  0
    0.7500   -1.2990    0.0000 C   0  0  0  0  0  0  0  0  0  0  0  0
   -0.7500   -1.2990    0.0000 C   0  0  0  0  0  0  0  0  0  0  0  0
   -1.5000    0.0000    0.0000 C   0  0  0  0  0  0  0  0  0  0  0  0
   -0.7500    1.2990    0.0000 C   0  0  0  0  0  0  0  0  0  0  0  0
    0.7500    1.2990    0.0000 C   0  0  0  0  0  0  0  0  0  0  0  0
    3.0000    1.5000    0.0000 Cl  0  0  0  0  0  0  0  0  0  0  0  0
    3.0000   -1.5000    0.0000 Cl  0  0  0  0  0  0  0  0  0  0  0  0
  1  2  1  0
  2  3  1  0
  3  4  2  0
  4  5  1  0
  5  6  2  0
  6  7  1  0
  7  8  2  0
  2  9  1  0
  2 10  1  0
  8  3  1  0
M  END
>  <name>  (394) 
dichloro-methyl-phenylsilane

>  <Outcome>  (394) 
2

>  <SMILES>  (394) 
C[Si](Cl)(Cl)c1ccccc1

$$$$

     RDKit          2D

 14 13  0  0  0  0  0  0  0  0999 V2000
    5.4730    3.9849    0.0000 C   0  0  0  0  0  0  0  0  0  0  0  0
    6.1875    3.5724    0.0000 C   0  0  0  0  0  0  0  0  0  0  0  0
    6.9020    3.9849    0.0000 C   0  0  0  0  0  0  0  0  0  0  0  0
    7.6164    3.5724    0.0000 C   0  0  0  0  0  0  0  0  0  0  0  0
    8.3309    3.9849    0.0000 C   0  0  0  0  0  0  0  0  0  0  0  0
    9.0454    3.5724    0.0000 C   0  0  0  0  0  0  0  0  0  0  0  0
    9.7599    3.9849    0.0000 C   0  0  0  0  0  0  0  0  0  0  0  0
   10.4743    3.5724    0.0000 C   0  0  0  0  0  0  0  0  0  0  0  0
   11.1888    3.9849    0.0000 C   0  0  0  0  0  0  0  0  0  0  0  0
   11.9033    3.5724    0.0000 C   0  0  0  0  0  0  0  0  0  0  0  0
   12.6177    3.9849    0.0000 C   0  0  0  0  0  0  0  0  0  0  0  0
   12.6177    4.8099    0.0000 O   0  0  0  0  0  0  0  0  0  0  0  0
   13.3322    3.5724    0.0000 O   0  0  0  0  0  0  0  0  0  0  0  0
   14.0467    3.9849    0.0000 C   0  0  0  0  0  0  0  0  0  0  0  0
  1  2  2  0
  2  3  1  0
  3  4  1  0
  4  5  1  0
  5  6  1  0
  6  7  1  0
  7  8  1  0
  8  9  1  0
  9 10  1  0
 10 11  1  0
 11 12  2  0
 11 13  1  0
 13 14  1  0
M  END
>  <name>  (395) 
methyl undec-10-enoate

>  <Outcome>  (395) 
1

>  <SMILES>  (395) 
C=CCCCCCCCCC(=O)OC

$$$$

     RDKit          2D

  6  5  0  0  0  0  0  0  0  0999 V2000
    0.1071   -1.2355    0.0000 O   0  0  0  0  0  0  0  0  0  0  0  0
    0.8216   -0.8230    0.0000 C   0  0  0  0  0  0  0  0  0  0  0  0
    0.8216    0.0020    0.0000 C   0  0  0  0  0  0  0  0  0  0  0  0
    0.8216    0.8270    0.0000 F   0  0  0  0  0  0  0  0  0  0  0  0
    1.6466    0.0020    0.0000 F   0  0  0  0  0  0  0  0  0  0  0  0
   -0.0034    0.0020    0.0000 F   0  0  0  0  0  0  0  0  0  0  0  0
  1  2  1  0
  2  3  1  0
  3  4  1  0
  3  5  1  0
  3  6  1  0
M  END
>  <name>  (396) 
2,2,2-trifluoroethan-1-ol

>  <Outcome>  (396) 
1

>  <SMILES>  (396) 
OCC(F)(F)F

$$$$

     RDKit          2D

 10  9  0  0  0  0  0  0  0  0999 V2000
    1.0047    1.4421    0.0000 C   0  0  0  0  0  0  0  0  0  0  0  0
    1.7191    1.8546    0.0000 C   0  0  0  0  0  0  0  0  0  0  0  0
    1.7191    2.6796    0.0000 O   0  0  0  0  0  0  0  0  0  0  0  0
    2.4336    1.4421    0.0000 O   0  0  0  0  0  0  0  0  0  0  0  0
    3.1481    1.8546    0.0000 C   0  0  0  0  0  0  0  0  0  0  0  0
    3.8625    1.4421    0.0000 C   0  0  0  0  0  0  0  0  0  0  0  0
    4.5770    1.8546    0.0000 O   0  0  0  0  0  0  0  0  0  0  0  0
    5.2915    1.4421    0.0000 C   0  0  0  0  0  0  0  0  0  0  0  0
    6.0060    1.8546    0.0000 C   0  0  0  0  0  0  0  0  0  0  0  0
    5.2915    0.6171    0.0000 C   0  0  0  0  0  0  0  0  0  0  0  0
  1  2  1  0
  2  3  2  0
  2  4  1  0
  4  5  1  0
  5  6  1  0
  6  7  1  0
  7  8  1  0
  8  9  1  0
  8 10  1  0
M  END
>  <name>  (397) 
2-isopropoxyethyl acetate

>  <Outcome>  (397) 
0

>  <SMILES>  (397) 
CC(=O)OCCOC(C)C

$$$$

     RDKit          2D

  9  8  0  0  0  0  0  0  0  0999 V2000
    0.0000    0.0000    0.0000 C   0  0  0  0  0  0  0  0  0  0  0  0
    1.2990    0.7500    0.0000 C   0  0  0  0  0  0  0  0  0  0  0  0
    2.5981    1.5000    0.0000 C   0  0  0  0  0  0  0  0  0  0  0  0
    2.5981    3.0000    0.0000 O   0  0  0  0  0  0  0  0  0  0  0  0
    2.0490   -0.5490    0.0000 N   0  0  0  0  0  4  0  0  0  0  0  0
    1.2990   -1.8481    0.0000 O   0  0  0  0  0  0  0  0  0  0  0  0
    3.5490   -0.5490    0.0000 O   0  0  0  0  0  1  0  0  0  0  0  0
    0.5490    2.0490    0.0000 Br  0  0  0  0  0  0  0  0  0  0  0  0
   -1.2990    0.7500    0.0000 O   0  0  0  0  0  0  0  0  0  0  0  0
  1  2  1  0
  2  3  1  0
  3  4  1  0
  2  5  1  0
  5  6  2  0
  5  7  1  0
  2  8  1  0
  1  9  1  0
M  CHG  2   5   1   7  -1
M  END
>  <name>  (398) 
2-bromo-2-nitropropane-1,3-diol

>  <Outcome>  (398) 
2

>  <SMILES>  (398) 
O=[N+]([O-])C(Br)(CO)CO

$$$$

     RDKit          2D

 19 19  0  0  0  0  0  0  0  0999 V2000
   12.0000   -5.1962    0.0000 C   0  0  0  0  0  0  0  0  0  0  0  0
   10.5000   -5.1962    0.0000 C   0  0  0  0  0  0  0  0  0  0  0  0
    9.7500   -3.8971    0.0000 C   0  0  0  0  0  0  0  0  0  0  0  0
    8.2500   -3.8971    0.0000 C   0  0  0  0  0  0  0  0  0  0  0  0
    7.5000   -2.5981    0.0000 C   0  0  0  0  0  0  0  0  0  0  0  0
    6.0000   -2.5981    0.0000 C   0  0  0  0  0  0  0  0  0  0  0  0
    5.2500   -1.2990    0.0000 C   0  0  0  0  0  0  0  0  0  0  0  0
    3.7500   -1.2990    0.0000 C   0  0  0  0  0  0  0  0  0  0  0  0
    3.0000    0.0000    0.0000 C   0  0  0  0  0  0  0  0  0  0  0  0
    1.5000    0.0000    0.0000 C   0  0  0  0  0  0  0  0  0  0  0  0
    0.7500   -1.2990    0.0000 C   0  0  0  0  0  0  0  0  0  0  0  0
   -0.7500   -1.2990    0.0000 C   0  0  0  0  0  0  0  0  0  0  0  0
   -1.5000    0.0000    0.0000 C   0  0  0  0  0  0  0  0  0  0  0  0
   -0.7500    1.2990    0.0000 C   0  0  0  0  0  0  0  0  0  0  0  0
    0.7500    1.2990    0.0000 C   0  0  0  0  0  0  0  0  0  0  0  0
   -3.0000    0.0000    0.0000 O   0  0  0  0  0  0  0  0  0  0  0  0
   -1.5000   -2.5981    0.0000 C   0  0  0  0  0  0  0  0  0  0  0  0
   -3.0000   -2.5981    0.0000 N   0  0  0  0  0  0  0  0  0  0  0  0
   -3.7500   -3.8971    0.0000 O   0  0  0  0  0  0  0  0  0  0  0  0
  1  2  1  0
  2  3  1  0
  3  4  1  0
  4  5  1  0
  5  6  1  0
  6  7  1  0
  7  8  1  0
  8  9  1  0
  9 10  1  0
 10 11  2  0
 11 12  1  0
 12 13  2  0
 13 14  1  0
 14 15  2  0
 13 16  1  0
 12 17  1  0
 17 18  2  3
 18 19  1  0
 15 10  1  0
M  END
>  <name>  (399) 
2-(hydroxyiminomethyl)-4-nonylphenol

>  <Outcome>  (399) 
2

>  <SMILES>  (399) 
CCCCCCCCCc1ccc(O)c(C=NO)c1

$$$$

     RDKit          2D

  4  3  0  0  0  0  0  0  0  0999 V2000
    1.2375    0.7145    0.0000 C   0  0  0  0  0  0  0  0  0  0  0  0
    0.8250    0.0000    0.0000 C   0  0  0  0  0  0  0  0  0  0  0  0
    1.2375   -0.7145    0.0000 O   0  0  0  0  0  0  0  0  0  0  0  0
   -0.0000    0.0000    0.0000 O   0  0  0  0  0  0  0  0  0  0  0  0
  1  2  1  0
  2  3  2  0
  2  4  1  0
M  END
>  <name>  (400) 
acetic acid

>  <Outcome>  (400) 
1

>  <SMILES>  (400) 
CC(=O)O

$$$$

     RDKit          2D

 15 14  0  0  0  0  0  0  0  0999 V2000
    1.7913   -1.8224    0.0000 C   0  0  0  0  0  0  0  0  0  0  0  0
    2.5058   -1.4099    0.0000 C   0  0  0  0  0  0  0  0  0  0  0  0
    3.2203   -1.8224    0.0000 C   0  0  0  0  0  0  0  0  0  0  0  0
    3.9348   -1.4099    0.0000 C   0  0  0  0  0  0  0  0  0  0  0  0
    4.6492   -1.8224    0.0000 C   0  0  0  0  0  0  0  0  0  0  0  0
    5.3637   -1.4099    0.0000 C   0  0  0  0  0  0  0  0  0  0  0  0
    6.0782   -1.8224    0.0000 C   0  0  0  0  0  0  0  0  0  0  0  0
    6.7926   -1.4099    0.0000 C   0  0  0  0  0  0  0  0  0  0  0  0
    7.5071   -1.8224    0.0000 Si  0  0  0  0  0  4  0  0  0  0  0  0
    8.2216   -2.2349    0.0000 O   0  0  0  0  0  0  0  0  0  0  0  0
    8.9360   -1.8224    0.0000 C   0  0  0  0  0  0  0  0  0  0  0  0
    7.0946   -2.5369    0.0000 O   0  0  0  0  0  0  0  0  0  0  0  0
    7.5071   -3.2513    0.0000 C   0  0  0  0  0  0  0  0  0  0  0  0
    7.9196   -1.1079    0.0000 O   0  0  0  0  0  0  0  0  0  0  0  0
    8.7446   -1.1079    0.0000 C   0  0  0  0  0  0  0  0  0  0  0  0
  1  2  1  0
  2  3  1  0
  3  4  1  0
  4  5  1  0
  5  6  1  0
  6  7  1  0
  7  8  1  0
  8  9  1  0
  9 10  1  0
 10 11  1  0
  9 12  1  0
 12 13  1  0
  9 14  1  0
 14 15  1  0
M  END
>  <name>  (401) 
trimethoxy(octyl)silane

>  <Outcome>  (401) 
1

>  <SMILES>  (401) 
CCCCCCCC[Si](OC)(OC)OC

$$$$

     RDKit          2D

 21 21  0  0  0  0  0  0  0  0999 V2000
   -0.1217    2.4531    0.0000 C   0  0  0  0  0  0  0  0  0  0  0  0
    0.5928    2.0406    0.0000 C   0  0  0  0  0  0  0  0  0  0  0  0
    1.3073    2.4531    0.0000 C   0  0  0  0  0  0  0  0  0  0  0  0
    0.5928    1.2156    0.0000 C   0  0  0  0  0  0  0  0  0  0  0  0
    1.3073    0.8031    0.0000 C   0  0  0  0  0  0  0  0  0  0  0  0
    1.3073   -0.0219    0.0000 C   0  0  0  0  0  0  0  0  0  0  0  0
    2.0217   -0.4344    0.0000 C   0  0  0  0  0  0  0  0  0  0  0  0
    2.0217   -1.2594    0.0000 C   0  0  0  0  0  0  0  0  0  0  0  0
    2.7362   -0.0219    0.0000 C   0  0  0  0  0  0  0  0  0  0  0  0
    0.5928   -0.4344    0.0000 C   0  0  0  0  0  0  0  0  0  0  0  0
    0.5928   -1.2594    0.0000 N   0  0  0  0  0  0  0  0  0  0  0  0
    1.3073   -1.6719    0.0000 C   0  0  0  0  0  0  0  0  0  0  0  0
    2.0217   -2.0844    0.0000 O   0  0  0  0  0  0  0  0  0  0  0  0
   -0.1217   -0.0219    0.0000 C   0  0  0  0  0  0  0  0  0  0  0  0
   -0.8361   -0.4344    0.0000 C   0  0  0  0  0  0  0  0  0  0  0  0
   -1.5506   -0.0219    0.0000 C   0  0  0  0  0  0  0  0  0  0  0  0
   -0.8361   -1.2594    0.0000 C   0  0  0  0  0  0  0  0  0  0  0  0
   -0.1217    0.8031    0.0000 C   0  0  0  0  0  0  0  0  0  0  0  0
   -0.8361    1.2156    0.0000 N   0  0  0  0  0  0  0  0  0  0  0  0
   -0.8361    2.0406    0.0000 C   0  0  0  0  0  0  0  0  0  0  0  0
   -0.8361    2.8656    0.0000 O   0  0  0  0  0  0  0  0  0  0  0  0
  1  2  1  0
  2  3  1  0
  2  4  1  0
  4  5  2  0
  5  6  1  0
  6  7  1  0
  7  8  1  0
  7  9  1  0
  6 10  2  0
 10 11  1  0
 11 12  2  0
 12 13  2  0
 10 14  1  0
 14 15  1  0
 15 16  1  0
 15 17  1  0
 14 18  2  0
  4 18  1  0
 18 19  1  0
 19 20  2  0
 20 21  2  0
M  END
>  <name>  (402) 
2,4-diisocyanato-1,3,5-triisopropylbenzene

>  <Outcome>  (402) 
1

>  <SMILES>  (402) 
CC(C)c1cc(C(C)C)c(N=C=O)c(C(C)C)c1N=C=O

$$$$

     RDKit          2D

 10  9  0  0  0  0  0  0  0  0999 V2000
   -0.3829    1.4289    0.0000 C   0  0  0  0  0  0  0  0  0  0  0  0
    0.3316    1.8414    0.0000 C   0  0  0  0  0  0  0  0  0  0  0  0
    1.0461    1.4289    0.0000 C   0  0  0  0  0  0  0  0  0  0  0  0
    1.7605    1.8414    0.0000 C   0  0  0  0  0  0  0  0  0  0  0  0
    2.4750    1.4289    0.0000 C   0  0  0  0  0  0  0  0  0  0  0  0
    3.1895    1.8414    0.0000 C   0  0  0  0  0  0  0  0  0  0  0  0
    3.9039    1.4289    0.0000 C   0  0  0  0  0  0  0  0  0  0  0  0
    4.6184    1.8414    0.0000 C   0  0  0  0  0  0  0  0  0  0  0  0
    5.3329    1.4289    0.0000 C   0  0  0  0  0  0  0  0  0  0  0  0
    6.0474    1.8414    0.0000 C   0  0  0  0  0  0  0  0  0  0  0  0
  2  1  1  0
  2  3  2  3
  3  4  1  0
  4  5  1  0
  5  6  1  0
  6  7  1  0
  7  8  1  0
  8  9  1  0
  9 10  1  0
M  END
>  <name>  (403) 
dec-1-ene

>  <Outcome>  (403) 
0

>  <SMILES>  (403) 
CC=CCCCCCCC

$$$$

     RDKit          2D

 20 20  0  0  0  0  0  0  0  0999 V2000
    1.5466    2.5651    0.0000 C   0  0  0  0  0  0  0  0  0  0  0  0
    1.5594    1.7402    0.0000 Si  0  0  0  0  0  4  0  0  0  0  0  0
    0.7448    1.8708    0.0000 C   0  0  0  0  0  0  0  0  0  0  0  0
    2.3696    1.8961    0.0000 O   0  0  0  0  0  0  0  0  0  0  0  0
    2.9096    1.2725    0.0000 Si  0  0  0  0  0  4  0  0  0  0  0  0
    3.4300    1.9126    0.0000 C   0  0  0  0  0  0  0  0  0  0  0  0
    3.6305    0.8711    0.0000 C   0  0  0  0  0  0  0  0  0  0  0  0
    2.6396    0.4929    0.0000 O   0  0  0  0  0  0  0  0  0  0  0  0
    1.8295    0.3370    0.0000 Si  0  0  0  0  0  4  0  0  0  0  0  0
    2.5503   -0.0643    0.0000 C   0  0  0  0  0  0  0  0  0  0  0  0
    2.1237   -0.4338    0.0000 C   0  0  0  0  0  0  0  0  0  0  0  0
    1.5594   -0.4426    0.0000 O   0  0  0  0  0  0  0  0  0  0  0  0
    0.7493   -0.5985    0.0000 Si  0  0  0  0  0  4  0  0  0  0  0  0
    1.0435   -1.3692    0.0000 C   0  0  0  0  0  0  0  0  0  0  0  0
    0.0413   -1.0221    0.0000 C   0  0  0  0  0  0  0  0  0  0  0  0
    0.2092    0.0252    0.0000 O   0  0  0  0  0  0  0  0  0  0  0  0
    0.4792    0.8047    0.0000 Si  0  0  0  0  0  4  0  0  0  0  0  0
   -0.3354    0.9353    0.0000 C   0  0  0  0  0  0  0  0  0  0  0  0
    0.4664    1.6296    0.0000 C   0  0  0  0  0  0  0  0  0  0  0  0
    1.2894    0.9606    0.0000 O   0  0  0  0  0  0  0  0  0  0  0  0
  1  2  1  0
  2  3  1  0
  2  4  1  0
  4  5  1  0
  5  6  1  0
  5  7  1  0
  5  8  1  0
  8  9  1  0
  9 10  1  0
  9 11  1  0
  9 12  1  0
 12 13  1  0
 13 14  1  0
 13 15  1  0
 13 16  1  0
 16 17  1  0
 17 18  1  0
 17 19  1  0
 17 20  1  0
  2 20  1  0
M  END
>  <name>  (404) 
decamethyl-1,3,5,7,9,2,4,6,8,10-pentaoxapentasilecane

>  <Outcome>  (404) 
0

>  <SMILES>  (404) 
C[Si]1(C)O[Si](C)(C)O[Si](C)(C)O[Si](C)(C)O[Si](C)(C)O1

$$$$

     RDKit          2D

 22 17  0  0  0  0  0  0  0  0999 V2000
    0.0000    0.0000    0.0000 C   0  0  0  0  0  0  0  0  0  0  0  0
    1.2990    0.7500    0.0000 C   0  0  0  0  0  0  0  0  0  0  0  0
    2.5981   -0.0000    0.0000 C   0  0  0  0  0  0  0  0  0  0  0  0
    2.5981   -1.5000    0.0000 O   0  0  0  0  0  0  0  0  0  0  0  0
    3.8971    0.7500    0.0000 O   0  0  0  0  0  1  0  0  0  0  0  0
   -1.2990    0.7500    0.0000 C   0  0  0  0  0  0  0  0  0  0  0  0
   -2.5981    0.0000    0.0000 C   0  0  0  0  0  0  0  0  0  0  0  0
   -2.5981   -1.5000    0.0000 O   0  0  0  0  0  0  0  0  0  0  0  0
   -3.8971    0.7500    0.0000 O   0  0  0  0  0  1  0  0  0  0  0  0
   -1.2990    2.2500    0.0000 N   0  0  0  0  0  0  0  0  0  0  0  0
   -2.5981    3.0000    0.0000 C   0  0  0  0  0  0  0  0  0  0  0  0
   -2.5981    4.5000    0.0000 C   0  0  0  0  0  0  0  0  0  0  0  0
   -1.8121    5.0923    0.0000 O   0  0  0  0  0  0  0  0  0  0  0  0
   -3.8971    5.2500    0.0000 O   0  0  0  0  0  1  0  0  0  0  0  0
    0.0000    3.0000    0.0000 C   0  0  0  0  0  0  0  0  0  0  0  0
    0.0000    4.5000    0.0000 C   0  0  0  0  0  0  0  0  0  0  0  0
   -0.7860    5.0923    0.0000 O   0  0  0  0  0  0  0  0  0  0  0  0
    1.2990    5.2500    0.0000 O   0  0  0  0  0  1  0  0  0  0  0  0
    0.0000    6.2500    0.0000 Na  0  0  0  0  0 15  0  0  0  0  0  0
    0.0000    7.2500    0.0000 Na  0  0  0  0  0 15  0  0  0  0  0  0
    4.8971    0.0000    0.0000 Na  0  0  0  0  0 15  0  0  0  0  0  0
    0.0000    8.2500    0.0000 Na  0  0  0  0  0 15  0  0  0  0  0  0
  1  2  1  0
  2  3  1  0
  3  4  2  0
  3  5  1  0
  1  6  1  0
  6  7  1  0
  7  8  2  0
  7  9  1  0
  6 10  1  0
 10 11  1  0
 11 12  1  0
 12 13  2  0
 12 14  1  0
 10 15  1  0
 15 16  1  0
 16 17  2  0
 16 18  1  0
M  CHG  8   5  -1   9  -1  14  -1  18  -1  19   1  20   1  21   1  22   1
M  END
>  <name>  (405) 
tetrasodium;(2S)-2-[bis(carboxylatomethyl)amino]pentanedioate

>  <Outcome>  (405) 
2

>  <SMILES>  (405) 
O=C([O-])CCC(C(=O)[O-])N(CC(=O)[O-])CC(=O)[O-].[Na+].[Na+].[Na+].[Na+]

$$$$

     RDKit          2D

 25 27  0  0  0  0  0  0  0  0999 V2000
    1.7329   -4.1608    0.0000 C   0  0  0  0  0  0  0  0  0  0  0  0
    1.1809   -3.5477    0.0000 N   0  0  0  0  0  0  0  0  0  0  0  0
    1.4358   -2.7631    0.0000 C   0  0  0  0  0  0  0  0  0  0  0  0
    2.2428   -2.5915    0.0000 O   0  0  0  0  0  0  0  0  0  0  0  0
    0.8838   -2.1500    0.0000 C   0  0  0  0  0  0  0  0  0  0  0  0
    0.0768   -2.3215    0.0000 C   0  0  0  0  0  0  0  0  0  0  0  0
   -0.7302   -2.4930    0.0000 N   0  0  0  0  0  0  0  0  0  0  0  0
    1.1387   -1.3654    0.0000 C   0  0  0  0  0  0  0  0  0  0  0  0
    0.6538   -0.6979    0.0000 N   0  0  0  0  0  0  0  0  0  0  0  0
    1.1387   -0.0305    0.0000 C   0  0  0  0  0  0  0  0  0  0  0  0
    0.8838    0.7541    0.0000 C   0  0  0  0  0  0  0  0  0  0  0  0
    0.0768    0.9257    0.0000 C   0  0  0  0  0  0  0  0  0  0  0  0
   -0.4752    0.3126    0.0000 O   0  0  0  0  0  0  0  0  0  0  0  0
   -0.1781    1.7103    0.0000 N   0  0  0  0  0  0  0  0  0  0  0  0
    0.3739    2.3234    0.0000 C   0  0  0  0  0  0  0  0  0  0  0  0
    0.1190    3.1080    0.0000 O   0  0  0  0  0  0  0  0  0  0  0  0
    1.1809    2.1519    0.0000 N   0  0  0  0  0  0  0  0  0  0  0  0
    1.4358    1.3672    0.0000 C   0  0  0  0  0  0  0  0  0  0  0  0
    2.2428    1.1957    0.0000 O   0  0  0  0  0  0  0  0  0  0  0  0
    1.9233   -0.2854    0.0000 C   0  0  0  0  0  0  0  0  0  0  0  0
    2.6378    0.1271    0.0000 C   0  0  0  0  0  0  0  0  0  0  0  0
    3.3523   -0.2854    0.0000 C   0  0  0  0  0  0  0  0  0  0  0  0
    3.3523   -1.1104    0.0000 C   0  0  0  0  0  0  0  0  0  0  0  0
    2.6378   -1.5229    0.0000 C   0  0  0  0  0  0  0  0  0  0  0  0
    1.9233   -1.1104    0.0000 C   0  0  0  0  0  0  0  0  0  0  0  0
  1  2  1  0
  2  3  1  0
  3  4  2  0
  5  3  1  0
  5  6  1  0
  6  7  3  0
  5  8  2  3
  8  9  1  0
 10  9  1  4
 10 11  2  3
 11 12  1  0
 12 13  2  0
 12 14  1  0
 14 15  1  0
 15 16  2  0
 15 17  1  0
 17 18  1  0
 11 18  1  0
 18 19  2  0
 10 20  1  0
 20 21  2  0
 21 22  1  0
 22 23  2  0
 23 24  1  0
 24 25  2  0
  8 25  1  0
 20 25  1  0
M  END
>  <name>  (406) 
2-cyano-N-methyl-2-[(1E)-3-(2,4,6-trioxo-1,3-diazinan-5-ylidene)-2,3-dihydro-1H-isoindol-1-ylidene]acetamide

>  <Outcome>  (406) 
0

>  <SMILES>  (406) 
CNC(=O)C(C#N)=c1[nH]c(=C2C(=O)NC(=O)NC2=O)c2ccccc12

$$$$

     RDKit          2D

  7  6  0  0  0  0  0  0  0  0999 V2000
   -0.1597    0.6845    0.0000 C   0  0  0  0  0  0  0  0  0  0  0  0
    0.5548    1.0970    0.0000 C   0  0  0  0  0  0  0  0  0  0  0  0
    1.2693    0.6845    0.0000 C   0  0  0  0  0  0  0  0  0  0  0  0
    1.9837    1.0970    0.0000 C   0  0  0  0  0  0  0  0  0  0  0  0
    1.9837    1.9220    0.0000 O   0  0  0  0  0  0  0  0  0  0  0  0
    2.6982    0.6845    0.0000 C   0  0  0  0  0  0  0  0  0  0  0  0
    3.4127    1.0970    0.0000 O   0  0  0  0  0  0  0  0  0  0  0  0
  1  2  1  0
  2  3  1  0
  3  4  1  0
  4  5  1  0
  4  6  1  0
  6  7  1  0
M  END
>  <name>  (407) 
pentane-1,2-diol

>  <Outcome>  (407) 
0

>  <SMILES>  (407) 
CCCC(O)CO

$$$$

     RDKit          2D

  5  4  0  0  0  0  0  0  0  0999 V2000
    2.0625   -0.7145    0.0000 C   0  0  0  0  0  0  0  0  0  0  0  0
    1.2375   -0.7145    0.0000 C   0  0  0  0  0  0  0  0  0  0  0  0
    0.8250   -1.4290    0.0000 O   0  0  0  0  0  0  0  0  0  0  0  0
    0.8250   -0.0000    0.0000 O   0  0  0  0  0  0  0  0  0  0  0  0
    0.0000   -0.0000    0.0000 O   0  0  0  0  0  0  0  0  0  0  0  0
  1  2  1  0
  2  3  2  0
  2  4  1  0
  4  5  1  0
M  END
>  <name>  (408) 
ethaneperoxoic acid

>  <Outcome>  (408) 
1

>  <SMILES>  (408) 
CC(=O)OO

$$$$

     RDKit          2D

  7  7  0  0  0  0  0  0  0  0999 V2000
   -0.1467    2.3518    0.0000 O   0  0  0  0  0  0  0  0  0  0  0  0
    0.5678    1.9393    0.0000 C   0  0  0  0  0  0  0  0  0  0  0  0
    0.5678    1.1143    0.0000 C   0  0  0  0  0  0  0  0  0  0  0  0
    1.2352    0.6294    0.0000 C   0  0  0  0  0  0  0  0  0  0  0  0
    0.9803   -0.1553    0.0000 C   0  0  0  0  0  0  0  0  0  0  0  0
    0.1553   -0.1553    0.0000 C   0  0  0  0  0  0  0  0  0  0  0  0
   -0.0997    0.6294    0.0000 O   0  0  0  0  0  0  0  0  0  0  0  0
  1  2  2  0
  2  3  1  0
  3  4  2  0
  4  5  1  0
  5  6  2  0
  6  7  1  0
  3  7  1  0
M  END
>  <name>  (409) 
furan-2-carbaldehyde

>  <Outcome>  (409) 
1

>  <SMILES>  (409) 
O=Cc1ccco1

$$$$

     RDKit          2D

  9  8  0  0  0  0  0  0  0  0999 V2000
    1.2375    0.7145    0.0000 F   0  0  0  0  0  0  0  0  0  0  0  0
    0.8250   -0.0000    0.0000 C   0  0  0  0  0  0  0  0  0  0  0  0
    1.2375   -0.7145    0.0000 F   0  0  0  0  0  0  0  0  0  0  0  0
   -0.0000   -0.0000    0.0000 C   0  0  0  0  0  0  0  0  0  0  0  0
   -0.4125    0.7145    0.0000 F   0  0  0  0  0  0  0  0  0  0  0  0
   -0.4125   -0.7145    0.0000 C   0  0  0  0  0  0  0  0  0  0  0  0
   -0.8250   -1.4289    0.0000 F   0  0  0  0  0  0  0  0  0  0  0  0
   -1.1270   -0.3020    0.0000 F   0  0  0  0  0  0  0  0  0  0  0  0
    0.3020   -1.1270    0.0000 F   0  0  0  0  0  0  0  0  0  0  0  0
  1  2  1  0
  2  3  1  0
  2  4  2  0
  4  5  1  0
  4  6  1  0
  6  7  1  0
  6  8  1  0
  6  9  1  0
M  END
>  <name>  (410) 
hexafluoroprop-1-ene

>  <Outcome>  (410) 
1

>  <SMILES>  (410) 
FC(F)=C(F)C(F)(F)F

$$$$

     RDKit          2D

 12 11  0  0  0  0  0  0  0  0999 V2000
    3.5211    2.8579    0.0000 C   0  0  0  0  0  0  0  0  0  0  0  0
    4.2355    3.2704    0.0000 C   0  0  0  0  0  0  0  0  0  0  0  0
    4.9500    2.8579    0.0000 C   0  0  0  0  0  0  0  0  0  0  0  0
    5.6645    3.2704    0.0000 C   0  0  0  0  0  0  0  0  0  0  0  0
    6.3789    2.8579    0.0000 C   0  0  0  0  0  0  0  0  0  0  0  0
    7.0934    3.2704    0.0000 C   0  0  0  0  0  0  0  0  0  0  0  0
    7.8079    2.8579    0.0000 C   0  0  0  0  0  0  0  0  0  0  0  0
    8.5224    3.2704    0.0000 C   0  0  0  0  0  0  0  0  0  0  0  0
    9.2368    2.8579    0.0000 C   0  0  0  0  0  0  0  0  0  0  0  0
    9.9513    3.2704    0.0000 C   0  0  0  0  0  0  0  0  0  0  0  0
   10.6658    2.8579    0.0000 C   0  0  0  0  0  0  0  0  0  0  0  0
   11.3802    3.2704    0.0000 C   0  0  0  0  0  0  0  0  0  0  0  0
  1  2  1  0
  2  3  1  0
  3  4  1  0
  4  5  1  0
  5  6  1  0
  6  7  1  0
  7  8  1  0
  8  9  1  0
  9 10  1  0
 10 11  1  0
 11 12  1  0
M  END
>  <name>  (411) 
dodecane

>  <Outcome>  (411) 
0

>  <SMILES>  (411) 
CCCCCCCCCCCC

$$$$

     RDKit          2D

  5  4  0  0  0  0  0  0  0  0999 V2000
    0.8250   -0.8250    0.0000 C   0  0  0  0  0  0  0  0  0  0  0  0
    0.8250    0.0000    0.0000 C   0  0  0  0  0  0  0  0  0  0  0  0
    0.8250    0.8250    0.0000 F   0  0  0  0  0  0  0  0  0  0  0  0
    1.6500   -0.0000    0.0000 F   0  0  0  0  0  0  0  0  0  0  0  0
    0.0000    0.0000    0.0000 Cl  0  0  0  0  0  0  0  0  0  0  0  0
  1  2  1  0
  2  3  1  0
  2  4  1  0
  2  5  1  0
M  END
>  <name>  (412) 
1-chloro-1,1-difluoroethane

>  <Outcome>  (412) 
0

>  <SMILES>  (412) 
CC(F)(F)Cl

$$$$

     RDKit          2D

 12 11  0  0  0  0  0  0  0  0999 V2000
    0.0003    0.0000    0.0000 C   0  0  0  0  0  0  0  0  0  0  0  0
    0.7148    0.4125    0.0000 O   0  0  0  0  0  0  0  0  0  0  0  0
    1.4292    0.0000    0.0000 C   0  0  0  0  0  0  0  0  0  0  0  0
    2.1437    0.4125    0.0000 C   0  0  0  0  0  0  0  0  0  0  0  0
    2.8582    0.0000    0.0000 O   0  0  0  0  0  0  0  0  0  0  0  0
    3.5727    0.4125    0.0000 C   0  0  0  0  0  0  0  0  0  0  0  0
    4.2871    0.0000    0.0000 C   0  0  0  0  0  0  0  0  0  0  0  0
    5.0016    0.4125    0.0000 O   0  0  0  0  0  0  0  0  0  0  0  0
    5.7161    0.0000    0.0000 C   0  0  0  0  0  0  0  0  0  0  0  0
    6.4305    0.4125    0.0000 C   0  0  0  0  0  0  0  0  0  0  0  0
    7.1450    0.0000    0.0000 O   0  0  0  0  0  0  0  0  0  0  0  0
    7.8595    0.4125    0.0000 C   0  0  0  0  0  0  0  0  0  0  0  0
  1  2  1  0
  2  3  1  0
  3  4  1  0
  4  5  1  0
  5  6  1  0
  6  7  1  0
  7  8  1  0
  8  9  1  0
  9 10  1  0
 10 11  1  0
 11 12  1  0
M  END
>  <name>  (413) 
Triethylene glycol dimethyl ether

>  <Outcome>  (413) 
0

>  <SMILES>  (413) 
COCCOCCOCCOC

$$$$

     RDKit          2D

  7  7  0  0  0  0  0  0  0  0999 V2000
    0.7239    2.1651    0.0000 S   0  0  0  0  0  0  0  0  0  0  0  0
    0.7239    1.3401    0.0000 C   0  0  0  0  0  0  0  0  0  0  0  0
    1.4383    0.9276    0.0000 C   0  0  0  0  0  0  0  0  0  0  0  0
    1.4383    0.1026    0.0000 C   0  0  0  0  0  0  0  0  0  0  0  0
    0.7239   -0.3099    0.0000 C   0  0  0  0  0  0  0  0  0  0  0  0
    0.0094    0.1026    0.0000 C   0  0  0  0  0  0  0  0  0  0  0  0
    0.0094    0.9276    0.0000 C   0  0  0  0  0  0  0  0  0  0  0  0
  1  2  1  0
  2  3  1  0
  3  4  1  0
  4  5  1  0
  5  6  1  0
  6  7  1  0
  2  7  1  0
M  END
>  <name>  (414) 
cyclohexanethiol

>  <Outcome>  (414) 
1

>  <SMILES>  (414) 
SC1CCCCC1

$$$$

     RDKit          2D

 13 13  0  0  0  0  0  0  0  0999 V2000
    0.7145    2.0625    0.0000 N   0  0  0  0  0  0  0  0  0  0  0  0
    0.7145    1.2375    0.0000 C   0  0  0  0  0  0  0  0  0  0  0  0
    1.4289    0.8250    0.0000 C   0  0  0  0  0  0  0  0  0  0  0  0
    2.1434    1.2375    0.0000 Cl  0  0  0  0  0  0  0  0  0  0  0  0
    1.4289    0.0000    0.0000 C   0  0  0  0  0  0  0  0  0  0  0  0
    0.7145   -0.4125    0.0000 C   0  0  0  0  0  0  0  0  0  0  0  0
    0.7145   -1.2375    0.0000 C   0  0  0  0  0  0  0  0  0  0  0  0
    0.7145   -2.0625    0.0000 F   0  0  0  0  0  0  0  0  0  0  0  0
   -0.1105   -1.2375    0.0000 F   0  0  0  0  0  0  0  0  0  0  0  0
    1.5395   -1.2375    0.0000 F   0  0  0  0  0  0  0  0  0  0  0  0
    0.0000    0.0000    0.0000 C   0  0  0  0  0  0  0  0  0  0  0  0
    0.0000    0.8250    0.0000 C   0  0  0  0  0  0  0  0  0  0  0  0
   -0.7145    1.2375    0.0000 Cl  0  0  0  0  0  0  0  0  0  0  0  0
  1  2  1  0
  2  3  2  0
  3  4  1  0
  3  5  1  0
  5  6  2  0
  6  7  1  0
  7  8  1  0
  7  9  1  0
  7 10  1  0
  6 11  1  0
 11 12  2  0
  2 12  1  0
 12 13  1  0
M  END
>  <name>  (415) 
2,6-dichloro-4-(trifluoromethyl)aniline

>  <Outcome>  (415) 
1

>  <SMILES>  (415) 
Nc1c(Cl)cc(C(F)(F)F)cc1Cl

$$$$

     RDKit          2D

 16 15  0  0  0  0  0  0  0  0999 V2000
   -2.3900   -1.0218    0.0000 C   0  0  0  0  0  0  0  0  0  0  0  0
   -1.5798   -0.8659    0.0000 C   0  0  0  0  0  0  0  0  0  0  0  0
   -1.0397   -1.4896    0.0000 N   0  0  0  0  0  0  0  0  0  0  0  0
   -1.3098   -2.2691    0.0000 C   0  0  0  0  0  0  0  0  0  0  0  0
   -2.1199   -2.4250    0.0000 C   0  0  0  0  0  0  0  0  0  0  0  0
   -0.2296   -1.3337    0.0000 C   0  0  0  0  0  0  0  0  0  0  0  0
    0.0404   -0.5541    0.0000 S   0  0  0  0  0  0  0  0  0  0  0  0
    0.3105   -1.9573    0.0000 S   0  0  0  0  0  0  0  0  0  0  0  0
    1.1206   -1.8014    0.0000 S   0  0  0  0  0  0  0  0  0  0  0  0
    1.6607   -2.4250    0.0000 C   0  0  0  0  0  0  0  0  0  0  0  0
    1.3907   -3.2046    0.0000 S   0  0  0  0  0  0  0  0  0  0  0  0
    2.4709   -2.2691    0.0000 N   0  0  0  0  0  0  0  0  0  0  0  0
    3.0109   -2.8928    0.0000 C   0  0  0  0  0  0  0  0  0  0  0  0
    3.8211   -2.7369    0.0000 C   0  0  0  0  0  0  0  0  0  0  0  0
    2.7409   -1.4896    0.0000 C   0  0  0  0  0  0  0  0  0  0  0  0
    3.5510   -1.3337    0.0000 C   0  0  0  0  0  0  0  0  0  0  0  0
  1  2  1  0
  2  3  1  0
  3  4  1  0
  4  5  1  0
  3  6  1  0
  6  7  2  0
  6  8  1  0
  8  9  1  0
  9 10  1  0
 10 11  2  0
 10 12  1  0
 12 13  1  0
 13 14  1  0
 12 15  1  0
 15 16  1  0
M  END
>  <name>  (416) 
Disulfiram

>  <Outcome>  (416) 
1

>  <SMILES>  (416) 
CCN(CC)C(=S)SSC(=S)N(CC)CC

$$$$

     RDKit          2D

  3  2  0  0  0  0  0  0  0  0999 V2000
    2.5936   -0.9862    0.0000 C   0  0  0  0  0  0  0  0  0  0  0  0
    2.1811   -0.2717    0.0000 S   0  0  0  0  0  0  0  0  0  0  0  0
    1.3561   -0.2717    0.0000 C   0  0  0  0  0  0  0  0  0  0  0  0
  1  2  1  0
  2  3  1  0
M  END
>  <name>  (417) 
(methylsulfanyl)methane

>  <Outcome>  (417) 
0

>  <SMILES>  (417) 
CSC

$$$$

     RDKit          2D

  4  3  0  0  0  0  0  0  0  0999 V2000
    0.0000    0.0000    0.0000 C   0  0  0  0  0  0  0  0  0  0  0  0
    1.2990    0.7500    0.0000 C   0  0  0  0  0  0  0  0  0  0  0  0
    2.5981   -0.0000    0.0000 C   0  0  0  0  0  0  0  0  0  0  0  0
    3.8971    0.7500    0.0000 Cl  0  0  0  0  0  0  0  0  0  0  0  0
  1  2  2  0
  2  3  1  0
  3  4  1  0
M  END
>  <name>  (418) 
3-chloroprop-1-ene

>  <Outcome>  (418) 
2

>  <SMILES>  (418) 
C=CCCl

$$$$

     RDKit          2D

  8  8  0  0  0  0  0  0  0  0999 V2000
    3.7500   -1.2990    0.0000 C   0  0  0  0  0  0  0  0  0  0  0  0
    3.0000    0.0000    0.0000 C   0  0  0  0  0  0  0  0  0  0  0  0
    1.5000    0.0000    0.0000 N   0  0  0  0  0  0  0  0  0  0  0  0
    0.7500   -1.2990    0.0000 C   0  0  0  0  0  0  0  0  0  0  0  0
   -0.7500   -1.2990    0.0000 C   0  0  0  0  0  0  0  0  0  0  0  0
   -1.5000    0.0000    0.0000 N   0  0  0  0  0  0  0  0  0  0  0  0
   -0.7500    1.2990    0.0000 C   0  0  0  0  0  0  0  0  0  0  0  0
    0.7500    1.2990    0.0000 C   0  0  0  0  0  0  0  0  0  0  0  0
  1  2  1  0
  2  3  1  0
  3  4  1  0
  4  5  1  0
  5  6  1  0
  6  7  1  0
  7  8  1  0
  8  3  1  0
M  END
>  <name>  (419) 
1-ethylpiperazine

>  <Outcome>  (419) 
2

>  <SMILES>  (419) 
CCN1CCNCC1

$$$$

     RDKit          2D

  7  6  0  0  0  0  0  0  0  0999 V2000
   -0.1915    0.7169    0.0000 C   0  0  0  0  0  0  0  0  0  0  0  0
    0.5230    1.1294    0.0000 C   0  0  0  0  0  0  0  0  0  0  0  0
    1.2375    0.7169    0.0000 C   0  0  0  0  0  0  0  0  0  0  0  0
    1.2375   -0.1081    0.0000 O   0  0  0  0  0  0  0  0  0  0  0  0
    1.9519    1.1294    0.0000 O   0  0  0  0  0  0  0  0  0  0  0  0
    2.6664    0.7169    0.0000 C   0  0  0  0  0  0  0  0  0  0  0  0
    3.3809    1.1294    0.0000 C   0  0  0  0  0  0  0  0  0  0  0  0
  1  2  2  0
  2  3  1  0
  3  4  2  0
  3  5  1  0
  5  6  1  0
  6  7  1  0
M  END
>  <name>  (420) 
ethyl prop-2-enoate

>  <Outcome>  (420) 
1

>  <SMILES>  (420) 
C=CC(=O)OCC

$$$$

     RDKit          2D

 11 12  0  0  0  0  0  0  0  0999 V2000
    1.5000   -5.1962    0.0000 C   0  0  0  0  0  0  0  0  0  0  0  0
    0.7500   -3.8971    0.0000 C   0  0  0  0  0  0  0  0  0  0  0  0
    1.5000   -2.5981    0.0000 C   0  0  0  0  0  0  0  0  0  0  0  0
    0.7500   -1.2990    0.0000 C   0  0  0  0  0  0  0  0  0  0  0  0
    1.5000    0.0000    0.0000 C   0  0  0  0  0  0  0  0  0  0  0  0
    0.7500    1.2990    0.0000 C   0  0  0  0  0  0  0  0  0  0  0  0
   -0.7500    1.2990    0.0000 C   0  0  0  0  0  0  0  0  0  0  0  0
   -1.5000    0.0000    0.0000 C   0  0  0  0  0  0  0  0  0  0  0  0
   -0.7500   -1.2990    0.0000 C   0  0  0  0  0  0  0  0  0  0  0  0
   -1.5000   -2.5981    0.0000 C   0  0  0  0  0  0  0  0  0  0  0  0
   -0.7500   -3.8971    0.0000 C   0  0  0  0  0  0  0  0  0  0  0  0
  1  2  1  0
  2  3  2  0
  3  4  1  0
  4  5  2  0
  5  6  1  0
  6  7  2  0
  7  8  1  0
  8  9  2  0
  9 10  1  0
 10 11  2  0
 11  2  1  0
  9  4  1  0
M  END
>  <name>  (421) 
2-methylnaphthalene

>  <Outcome>  (421) 
2

>  <SMILES>  (421) 
Cc1ccc2ccccc2c1

$$$$

     RDKit          2D

  3  1  0  0  0  0  0  0  0  0999 V2000
    0.0000    0.0000    0.0000 O   0  0  0  0  0  1  0  0  0  0  0  0
    1.2990    0.7500    0.0000 O   0  0  0  0  0  1  0  0  0  0  0  0
    0.0000    1.7500    0.0000 Ca  0  0  0  0  0 15  0  0  0  0  0  0
  1  2  1  0
M  CHG  3   1  -1   2  -1   3   2
M  END
>  <name>  (422) 
calcium;peroxide

>  <Outcome>  (422) 
2

>  <SMILES>  (422) 
[Ca+2].[O-][O-]

$$$$

     RDKit          2D

 25 26  0  0  0  0  0  0  0  0999 V2000
   -2.5974   -0.4914    0.0000 C   0  0  0  0  0  0  0  0  0  0  0  0
   -2.1849   -1.2059    0.0000 C   0  0  0  0  0  0  0  0  0  0  0  0
   -1.3599   -1.2059    0.0000 C   0  0  0  0  0  0  0  0  0  0  0  0
   -0.9474   -1.9204    0.0000 C   0  0  0  0  0  0  0  0  0  0  0  0
   -0.1224   -1.9204    0.0000 C   0  0  0  0  0  0  0  0  0  0  0  0
    0.2901   -1.2059    0.0000 C   0  0  0  0  0  0  0  0  0  0  0  0
    1.1151   -1.2059    0.0000 C   0  0  0  0  0  0  0  0  0  0  0  0
    0.2901   -2.6348    0.0000 C   0  0  0  0  0  0  0  0  0  0  0  0
    1.1151   -2.6348    0.0000 O   0  0  0  0  0  0  0  0  0  0  0  0
    1.5276   -3.3493    0.0000 P   0  0  0  0  0  0  0  0  0  0  0  0
    0.8131   -3.7618    0.0000 O   0  0  0  0  0  0  0  0  0  0  0  0
    1.9401   -4.0638    0.0000 O   0  0  0  0  0  0  0  0  0  0  0  0
    1.5276   -4.7782    0.0000 C   0  0  0  0  0  0  0  0  0  0  0  0
    0.7026   -4.7782    0.0000 C   0  0  0  0  0  0  0  0  0  0  0  0
    0.2901   -5.4927    0.0000 C   0  0  0  0  0  0  0  0  0  0  0  0
    0.7026   -6.2072    0.0000 C   0  0  0  0  0  0  0  0  0  0  0  0
    1.5276   -6.2072    0.0000 C   0  0  0  0  0  0  0  0  0  0  0  0
    1.9401   -5.4927    0.0000 C   0  0  0  0  0  0  0  0  0  0  0  0
    2.2421   -2.9368    0.0000 O   0  0  0  0  0  0  0  0  0  0  0  0
    2.9565   -3.3493    0.0000 C   0  0  0  0  0  0  0  0  0  0  0  0
    2.9565   -4.1743    0.0000 C   0  0  0  0  0  0  0  0  0  0  0  0
    3.6710   -4.5868    0.0000 C   0  0  0  0  0  0  0  0  0  0  0  0
    4.3855   -4.1743    0.0000 C   0  0  0  0  0  0  0  0  0  0  0  0
    4.3855   -3.3493    0.0000 C   0  0  0  0  0  0  0  0  0  0  0  0
    3.6710   -2.9368    0.0000 C   0  0  0  0  0  0  0  0  0  0  0  0
  1  2  1  0
  2  3  1  0
  3  4  1  0
  4  5  1  0
  5  6  1  0
  6  7  1  0
  5  8  1  0
  8  9  1  0
  9 10  1  0
 10 11  2  0
 10 12  1  0
 12 13  1  0
 14 13  2  0
 15 14  1  0
 16 15  2  0
 17 16  1  0
 18 17  2  0
 10 19  1  0
 19 20  1  0
 21 20  2  0
 22 21  1  0
 23 22  2  0
 24 23  1  0
 25 24  2  0
 13 18  1  0
 20 25  1  0
M  END
>  <name>  (423) 
2-Ethylhexyl diphenyl phosphate

>  <Outcome>  (423) 
1

>  <SMILES>  (423) 
CCCCC(CC)COP(=O)(Oc1ccccc1)Oc1ccccc1

$$$$

     RDKit          2D

  9  9  0  0  0  0  0  0  0  0999 V2000
    0.7145    2.0625    0.0000 N   0  0  0  0  0  0  0  0  0  0  0  0
    0.7145    1.2375    0.0000 C   0  0  0  0  0  0  0  0  0  0  0  0
    1.4289    0.8250    0.0000 N   0  0  0  0  0  0  0  0  0  0  0  0
    1.4289   -0.0000    0.0000 C   0  0  0  0  0  0  0  0  0  0  0  0
    2.1434   -0.4125    0.0000 O   0  0  0  0  0  0  0  0  0  0  0  0
    0.7145   -0.4125    0.0000 N   0  0  0  0  0  0  0  0  0  0  0  0
    0.0000   -0.0000    0.0000 C   0  0  0  0  0  0  0  0  0  0  0  0
    0.0000    0.8250    0.0000 C   0  0  0  0  0  0  0  0  0  0  0  0
   -0.7145    1.2375    0.0000 F   0  0  0  0  0  0  0  0  0  0  0  0
  1  2  1  0
  2  3  2  0
  3  4  1  0
  4  5  2  0
  4  6  1  0
  6  7  1  0
  7  8  2  0
  2  8  1  0
  8  9  1  0
M  END
>  <name>  (424) 
4-amino-5-fluoro-1,2-dihydropyrimidin-2-one

>  <Outcome>  (424) 
0

>  <SMILES>  (424) 
Nc1nc(=O)[nH]cc1F

$$$$

     RDKit          2D

 34 36  0  0  0  0  0  0  0  0999 V2000
    3.0000    0.0000    0.0000 C   0  0  0  0  0  0  0  0  0  0  0  0
    1.5000    0.0000    0.0000 C   0  0  0  0  0  0  0  0  0  0  0  0
    0.7500   -1.2990    0.0000 C   0  0  0  0  0  0  0  0  0  0  0  0
   -0.7500   -1.2990    0.0000 C   0  0  0  0  0  0  0  0  0  0  0  0
   -1.5000    0.0000    0.0000 C   0  0  0  0  0  0  0  0  0  0  0  0
   -0.7500    1.2990    0.0000 C   0  0  0  0  0  0  0  0  0  0  0  0
    0.7500    1.2990    0.0000 O   0  0  0  0  0  0  0  0  0  0  0  0
   -1.5000    2.5981    0.0000 O   0  0  0  0  0  0  0  0  0  0  0  0
   -0.7500    3.8971    0.0000 C   0  0  0  0  0  0  0  0  0  0  0  0
    0.7500    3.8971    0.0000 C   0  0  0  0  0  0  0  0  0  0  0  0
    1.5000    5.1962    0.0000 O   0  0  0  0  0  0  0  0  0  0  0  0
    0.7500    6.4952    0.0000 C   0  0  0  0  0  0  0  0  0  0  0  0
   -0.7500    6.4952    0.0000 C   0  0  0  0  0  0  0  0  0  0  0  0
   -1.5000    5.1962    0.0000 C   0  0  0  0  0  0  0  0  0  0  0  0
   -3.0000    5.1962    0.0000 O   0  0  0  0  0  0  0  0  0  0  0  0
   -1.5000    7.7942    0.0000 O   0  0  0  0  0  0  0  0  0  0  0  0
    1.5000    7.7942    0.0000 O   0  0  0  0  0  0  0  0  0  0  0  0
    3.0000    7.7942    0.0000 C   0  0  0  0  0  0  0  0  0  0  0  0
    3.7500    6.4952    0.0000 C   0  0  0  0  0  0  0  0  0  0  0  0
    5.2500    6.4952    0.0000 O   0  0  0  0  0  0  0  0  0  0  0  0
    6.0000    7.7942    0.0000 C   0  0  0  0  0  0  0  0  0  0  0  0
    5.2500    9.0933    0.0000 C   0  0  0  0  0  0  0  0  0  0  0  0
    3.7500    9.0933    0.0000 C   0  0  0  0  0  0  0  0  0  0  0  0
    3.0000   10.3923    0.0000 O   0  0  0  0  0  0  0  0  0  0  0  0
    6.0000   10.3923    0.0000 O   0  0  0  0  0  0  0  0  0  0  0  0
    7.5000    7.7942    0.0000 O   0  0  0  0  0  0  0  0  0  0  0  0
    3.0000    5.1962    0.0000 C   0  0  0  0  0  0  0  0  0  0  0  0
    3.7500    3.8971    0.0000 O   0  0  0  0  0  0  0  0  0  0  0  0
    1.5000    2.5981    0.0000 C   0  0  0  0  0  0  0  0  0  0  0  0
    3.0000    2.5981    0.0000 O   0  0  0  0  0  0  0  0  0  0  0  0
   -3.0000    0.0000    0.0000 O   0  0  0  0  0  0  0  0  0  0  0  0
   -1.5000   -2.5981    0.0000 O   0  0  0  0  0  0  0  0  0  0  0  0
    1.5000   -2.5981    0.0000 O   0  0  0  0  0  0  0  0  0  0  0  0
    3.7500    1.2990    0.0000 O   0  0  0  0  0  0  0  0  0  0  0  0
  1  2  1  0
  2  3  1  0
  3  4  1  0
  4  5  1  0
  5  6  1  0
  6  7  1  0
  6  8  1  0
  8  9  1  0
  9 10  1  0
 10 11  1  0
 11 12  1  0
 12 13  1  0
 13 14  1  0
 14 15  1  0
 13 16  1  0
 12 17  1  0
 17 18  1  0
 18 19  1  0
 19 20  1  0
 20 21  1  0
 21 22  1  0
 22 23  1  0
 23 24  1  0
 22 25  1  0
 21 26  1  0
 19 27  1  0
 27 28  1  0
 10 29  1  0
 29 30  1  0
  5 31  1  0
  4 32  1  0
  3 33  1  0
  1 34  1  0
  7  2  1  0
 14  9  1  0
 23 18  1  0
M  END
>  <name>  (425) 
(2S,3R,4S,5S,6R)-2-[(2R,3S,4R,5R,6S)-4,5-dihydroxy-2-(hydroxymethyl)-6-[(2R,3S,4R,5R,6R)-4,5,6-trihydroxy-2-(hydroxymethyl)oxan-3-yl]oxyoxan-3-yl]oxy-6-(hydroxymethyl)oxane-3,4,5-triol

>  <Outcome>  (425) 
2

>  <SMILES>  (425) 
OCC1OC(OC2C(CO)OC(OC3C(CO)OC(O)C(O)C3O)C(O)C2O)C(O)C(O)C1O

$$$$

     RDKit          2D

  5  5  0  0  0  0  0  0  0  0999 V2000
    0.5662    1.1121    0.0000 C   0  0  0  0  0  0  0  0  0  0  0  0
    1.2336    0.6272    0.0000 C   0  0  0  0  0  0  0  0  0  0  0  0
    0.9787   -0.1575    0.0000 C   0  0  0  0  0  0  0  0  0  0  0  0
    0.1537   -0.1575    0.0000 N   0  0  0  0  0  0  0  0  0  0  0  0
   -0.1013    0.6272    0.0000 C   0  0  0  0  0  0  0  0  0  0  0  0
  1  2  1  0
  2  3  1  0
  3  4  1  0
  4  5  1  0
  1  5  1  0
M  END
>  <name>  (426) 
pyrrolidine

>  <Outcome>  (426) 
1

>  <SMILES>  (426) 
C1CCNC1

$$$$

     RDKit          2D

  1  0  0  0  0  0  0  0  0  0999 V2000
    0.0000    0.0000    0.0000 K   0  0  0  0  0 15  0  0  0  0  0  0
M  END
>  <name>  (427) 
potassium

>  <Outcome>  (427) 
2

>  <SMILES>  (427) 
[K]

$$$$

     RDKit          2D

 31 30  0  0  0  0  0  0  0  0999 V2000
   -6.0619    4.0027    0.0000 C   0  0  0  0  0  0  0  0  0  0  0  0
   -5.3474    4.4152    0.0000 C   0  0  0  0  0  0  0  0  0  0  0  0
   -4.6329    4.0027    0.0000 C   0  0  0  0  0  0  0  0  0  0  0  0
   -3.9185    4.4152    0.0000 C   0  0  0  0  0  0  0  0  0  0  0  0
   -3.2040    4.0027    0.0000 C   0  0  0  0  0  0  0  0  0  0  0  0
   -2.4895    4.4152    0.0000 C   0  0  0  0  0  0  0  0  0  0  0  0
   -1.7751    4.0027    0.0000 C   0  0  0  0  0  0  0  0  0  0  0  0
   -1.0606    4.4152    0.0000 C   0  0  0  0  0  0  0  0  0  0  0  0
   -0.3461    4.0027    0.0000 C   0  0  0  0  0  0  0  0  0  0  0  0
    0.3684    4.4152    0.0000 C   0  0  0  0  0  0  0  0  0  0  0  0
    1.0828    4.0027    0.0000 C   0  0  0  0  0  0  0  0  0  0  0  0
    1.7973    4.4152    0.0000 C   0  0  0  0  0  0  0  0  0  0  0  0
    2.5118    4.0027    0.0000 C   0  0  0  0  0  0  0  0  0  0  0  0
    3.2262    4.4152    0.0000 C   0  0  0  0  0  0  0  0  0  0  0  0
    3.9407    4.0027    0.0000 N   0  0  0  0  0  0  0  0  0  0  0  0
    3.5282    3.2883    0.0000 C   0  0  0  0  0  0  0  0  0  0  0  0
    4.3532    4.7172    0.0000 C   0  0  0  0  0  0  0  0  0  0  0  0
    4.6552    3.5902    0.0000 C   0  0  0  0  0  0  0  0  0  0  0  0
    5.3696    4.0027    0.0000 C   0  0  0  0  0  0  0  0  0  0  0  0
    6.0841    3.5902    0.0000 C   0  0  0  0  0  0  0  0  0  0  0  0
    6.7986    4.0027    0.0000 C   0  0  0  0  0  0  0  0  0  0  0  0
    7.5131    3.5902    0.0000 C   0  0  0  0  0  0  0  0  0  0  0  0
    8.2275    4.0027    0.0000 C   0  0  0  0  0  0  0  0  0  0  0  0
    8.9420    3.5902    0.0000 C   0  0  0  0  0  0  0  0  0  0  0  0
    9.6565    4.0027    0.0000 C   0  0  0  0  0  0  0  0  0  0  0  0
   10.3709    3.5902    0.0000 C   0  0  0  0  0  0  0  0  0  0  0  0
   11.0854    4.0027    0.0000 C   0  0  0  0  0  0  0  0  0  0  0  0
   11.7999    3.5902    0.0000 C   0  0  0  0  0  0  0  0  0  0  0  0
   12.5144    4.0027    0.0000 C   0  0  0  0  0  0  0  0  0  0  0  0
   13.2288    3.5902    0.0000 C   0  0  0  0  0  0  0  0  0  0  0  0
   13.9433    4.0027    0.0000 C   0  0  0  0  0  0  0  0  0  0  0  0
  1  2  1  0
  2  3  1  0
  3  4  1  0
  4  5  1  0
  5  6  1  0
  6  7  1  0
  7  8  1  0
  8  9  1  0
  9 10  1  0
 10 11  1  0
 11 12  1  0
 12 13  1  0
 13 14  1  0
 14 15  1  0
 15 16  1  0
 15 17  1  0
 15 18  1  0
 18 19  1  0
 19 20  1  0
 20 21  1  0
 21 22  1  0
 22 23  1  0
 23 24  1  0
 24 25  1  0
 25 26  1  0
 26 27  1  0
 27 28  1  0
 28 29  1  0
 29 30  1  0
 30 31  1  0
M  CHG  1  15   1
M  END
>  <name>  (428) 
N,N-dimethyl-N-tetradecyltetradecan-1-aminium chloride

>  <Outcome>  (428) 
1

>  <SMILES>  (428) 
CCCCCCCCCCCCCC[N+](C)(C)CCCCCCCCCCCCCC

$$$$

     RDKit          2D

 17 14  0  0  0  0  0  0  0  0999 V2000
    0.0000    0.0000    0.0000 C   0  0  0  0  0  0  0  0  0  0  0  0
    1.2990    0.7500    0.0000 C   0  0  0  0  0  0  0  0  0  0  0  0
    2.5981   -0.0000    0.0000 N   0  0  0  0  0  0  0  0  0  0  0  0
    3.8971    0.7500    0.0000 C   0  0  0  0  0  0  0  0  0  0  0  0
    5.1962   -0.0000    0.0000 C   0  0  0  0  0  0  0  0  0  0  0  0
    2.5981   -1.5000    0.0000 C   0  0  0  0  0  0  0  0  0  0  0  0
    1.2990   -2.2500    0.0000 S   0  0  0  0  0  0  0  0  0  0  0  0
    3.8971   -2.2500    0.0000 S   0  0  0  0  0  1  0  0  0  0  0  0
    0.0000    4.0000    0.0000 C   0  0  0  0  0  0  0  0  0  0  0  0
    1.2990    4.7500    0.0000 C   0  0  0  0  0  0  0  0  0  0  0  0
    2.5981    4.0000    0.0000 N   0  0  0  0  0  0  0  0  0  0  0  0
    3.8971    4.7500    0.0000 C   0  0  0  0  0  0  0  0  0  0  0  0
    5.1962    4.0000    0.0000 C   0  0  0  0  0  0  0  0  0  0  0  0
    2.5981    2.5000    0.0000 C   0  0  0  0  0  0  0  0  0  0  0  0
    1.2990    1.7500    0.0000 S   0  0  0  0  0  0  0  0  0  0  0  0
    3.8971    1.7500    0.0000 S   0  0  0  0  0  1  0  0  0  0  0  0
    6.1962    0.0000    0.0000 Zn  0  0  0  0  0 15  0  0  0  0  0  0
  1  2  1  0
  2  3  1  0
  3  4  1  0
  4  5  1  0
  3  6  1  0
  6  7  2  0
  6  8  1  0
  9 10  1  0
 10 11  1  0
 11 12  1  0
 12 13  1  0
 11 14  1  0
 14 15  2  0
 14 16  1  0
M  CHG  3   8  -1  16  -1  17   2
M  END
>  <name>  (429) 
zinc;N,N-diethylcarbamodithioate

>  <Outcome>  (429) 
2

>  <SMILES>  (429) 
CCN(CC)C(=S)[S-].CCN(CC)C(=S)[S-].[Zn+2]

$$$$

     RDKit          2D

  8  7  0  0  0  0  0  0  0  0999 V2000
   -0.5186    0.7657    0.0000 C   0  0  0  0  0  0  0  0  0  0  0  0
    0.1958    1.1782    0.0000 C   0  0  0  0  0  0  0  0  0  0  0  0
    0.1958    2.0032    0.0000 C   0  0  0  0  0  0  0  0  0  0  0  0
    0.9103    0.7657    0.0000 C   0  0  0  0  0  0  0  0  0  0  0  0
    1.6248    1.1782    0.0000 O   0  0  0  0  0  0  0  0  0  0  0  0
    2.3392    0.7657    0.0000 C   0  0  0  0  0  0  0  0  0  0  0  0
    3.0537    1.1782    0.0000 C   0  0  0  0  0  0  0  0  0  0  0  0
    2.3392   -0.0593    0.0000 O   0  0  0  0  0  0  0  0  0  0  0  0
  1  2  1  0
  2  3  1  0
  2  4  1  0
  4  5  1  0
  5  6  1  0
  6  7  1  0
  6  8  2  0
M  END
>  <name>  (430) 
Isobutyl acetate

>  <Outcome>  (430) 
0

>  <SMILES>  (430) 
CC(=O)OCC(C)C

$$$$

     RDKit          2D

 13 12  0  0  0  0  0  0  0  0999 V2000
   -0.0182    0.4247    0.0000 C   0  0  0  0  0  0  0  0  0  0  0  0
    0.6962    0.0122    0.0000 C   0  0  0  0  0  0  0  0  0  0  0  0
    1.4107    0.4247    0.0000 C   0  0  0  0  0  0  0  0  0  0  0  0
    2.1252    0.0122    0.0000 C   0  0  0  0  0  0  0  0  0  0  0  0
    2.8397    0.4247    0.0000 C   0  0  0  0  0  0  0  0  0  0  0  0
    3.5541    0.0122    0.0000 C   0  0  0  0  0  0  0  0  0  0  0  0
    4.2686    0.4247    0.0000 C   0  0  0  0  0  0  0  0  0  0  0  0
    4.9831    0.0122    0.0000 C   0  0  0  0  0  0  0  0  0  0  0  0
    5.6975    0.4247    0.0000 C   0  0  0  0  0  0  0  0  0  0  0  0
    6.4120    0.0122    0.0000 C   0  0  0  0  0  0  0  0  0  0  0  0
    7.1265    0.4247    0.0000 C   0  0  0  0  0  0  0  0  0  0  0  0
    7.8409    0.0122    0.0000 C   0  0  0  0  0  0  0  0  0  0  0  0
    8.5554    0.4247    0.0000 O   0  0  0  0  0  0  0  0  0  0  0  0
  1  2  1  0
  2  3  1  0
  3  4  1  0
  4  5  1  0
  5  6  1  0
  6  7  1  0
  7  8  1  0
  8  9  1  0
  9 10  1  0
 10 11  1  0
 11 12  1  0
 12 13  1  0
M  END
>  <name>  (431) 
1-Dodecanol

>  <Outcome>  (431) 
0

>  <SMILES>  (431) 
CCCCCCCCCCCCO

$$$$

     RDKit          2D

 11 10  0  0  0  0  0  0  0  0999 V2000
    1.7605    1.8414    0.0000 C   0  0  0  0  0  0  0  0  0  0  0  0
    2.4750    1.4289    0.0000 N   0  0  0  0  0  0  0  0  0  0  0  0
    2.4750    0.6039    0.0000 C   0  0  0  0  0  0  0  0  0  0  0  0
    3.1895    1.8414    0.0000 C   0  0  0  0  0  0  0  0  0  0  0  0
    3.1895    2.6664    0.0000 S   0  0  0  0  0  0  0  0  0  0  0  0
    3.9039    1.4289    0.0000 S   0  0  0  0  0  0  0  0  0  0  0  0
    4.6184    1.8414    0.0000 C   0  0  0  0  0  0  0  0  0  0  0  0
    4.6184    2.6664    0.0000 S   0  0  0  0  0  0  0  0  0  0  0  0
    5.3329    1.4289    0.0000 N   0  0  0  0  0  0  0  0  0  0  0  0
    6.0474    1.8414    0.0000 C   0  0  0  0  0  0  0  0  0  0  0  0
    5.3329    0.6039    0.0000 C   0  0  0  0  0  0  0  0  0  0  0  0
  1  2  1  0
  2  3  1  0
  2  4  1  0
  4  5  2  0
  4  6  1  0
  6  7  1  0
  7  8  2  0
  7  9  1  0
  9 10  1  0
  9 11  1  0
M  END
>  <name>  (432) 
N,N-dimethyl[(dimethylcarbamothioyl)sulfanyl]carbothioamide

>  <Outcome>  (432) 
1

>  <SMILES>  (432) 
CN(C)C(=S)SC(=S)N(C)C

$$$$

     RDKit          2D

 15 12  0  0  0  0  0  0  0  0999 V2000
    2.6491   -0.9642    0.0000 O   0  0  0  0  0  1  0  0  0  0  0  0
    1.5000    0.0000    0.0000 P   0  0  0  0  0  0  0  0  0  0  0  0
    2.6491    0.9642    0.0000 O   0  0  0  0  0  0  0  0  0  0  0  0
    0.7500   -1.2990    0.0000 O   0  0  0  0  0  0  0  0  0  0  0  0
   -0.7500   -1.2990    0.0000 P   0  0  0  0  0  0  0  0  0  0  0  0
   -0.4895   -2.7762    0.0000 O   0  0  0  0  0  0  0  0  0  0  0  0
   -1.5000    0.0000    0.0000 O   0  0  0  0  0  0  0  0  0  0  0  0
   -0.7500    1.2990    0.0000 P   0  0  0  0  0  0  0  0  0  0  0  0
   -2.1595    1.8121    0.0000 O   0  0  0  0  0  0  0  0  0  0  0  0
    0.7500    1.2990    0.0000 O   0  0  0  0  0  0  0  0  0  0  0  0
   -0.4895    2.7762    0.0000 O   0  0  0  0  0  1  0  0  0  0  0  0
   -2.1595   -1.8121    0.0000 O   0  0  0  0  0  1  0  0  0  0  0  0
    3.6491    0.0000    0.0000 Na  0  0  0  0  0 15  0  0  0  0  0  0
    0.0000    3.7762    0.0000 Na  0  0  0  0  0 15  0  0  0  0  0  0
    4.6491    0.0000    0.0000 Na  0  0  0  0  0 15  0  0  0  0  0  0
  1  2  1  0
  2  3  2  0
  2  4  1  0
  4  5  1  0
  5  6  2  0
  5  7  1  0
  7  8  1  0
  8  9  2  0
  8 10  1  0
  8 11  1  0
  5 12  1  0
 10  2  1  0
M  CHG  6   1  -1  11  -1  12  -1  13   1  14   1  15   1
M  END
>  <name>  (433) 
trisodium;2,4,6-trioxido-1,3,5,2lambda5,4lambda5,6lambda5-trioxatriphosphinane 2,4,6-trioxide

>  <Outcome>  (433) 
2

>  <SMILES>  (433) 
O=P1([O-])OP(=O)([O-])OP(=O)([O-])O1.[Na+].[Na+].[Na+]

$$$$

     RDKit          2D

 10  6  0  0  0  0  0  0  0  0999 V2000
    0.0000    0.0000    0.0000 C   0  0  0  0  0  0  0  0  0  0  0  0
   -1.2990    0.7500    0.0000 O   0  0  0  0  0  0  0  0  0  0  0  0
    1.2990    0.7500    0.0000 O   0  0  0  0  0  1  0  0  0  0  0  0
    0.0000    1.7500    0.0000 C   0  0  0  0  0  0  0  0  0  0  0  0
   -1.2990    2.5000    0.0000 O   0  0  0  0  0  0  0  0  0  0  0  0
    1.2990    2.5000    0.0000 O   0  0  0  0  0  1  0  0  0  0  0  0
    0.0000    3.5000    0.0000 C   0  0  0  0  0  0  0  0  0  0  0  0
   -1.2990    4.2500    0.0000 O   0  0  0  0  0  0  0  0  0  0  0  0
    1.2990    4.2500    0.0000 O   0  0  0  0  0  1  0  0  0  0  0  0
    2.2990    0.0000    0.0000 Al  0  0  0  0  0 15  0  0  0  0  0  0
  1  2  2  0
  1  3  1  0
  4  5  2  0
  4  6  1  0
  7  8  2  0
  7  9  1  0
M  CHG  4   3  -1   6  -1   9  -1  10   3
M  END
>  <name>  (434) 
aluminum;triformate

>  <Outcome>  (434) 
2

>  <SMILES>  (434) 
O=C[O-].O=C[O-].O=C[O-].[Al+3]

$$$$

     RDKit          2D

 10 12  0  0  0  0  0  0  0  0999 V2000
    0.6164   -0.0219    0.0000 C   0  0  0  0  0  0  0  0  0  0  0  0
    0.6164   -0.8469    0.0000 C   0  0  0  0  0  0  0  0  0  0  0  0
   -0.0981   -1.2594    0.0000 C   0  0  0  0  0  0  0  0  0  0  0  0
   -0.3043   -0.4344    0.0000 C   0  0  0  0  0  0  0  0  0  0  0  0
   -0.0981    0.3906    0.0000 C   0  0  0  0  0  0  0  0  0  0  0  0
   -0.8125   -0.0219    0.0000 C   0  0  0  0  0  0  0  0  0  0  0  0
   -1.5972    0.2331    0.0000 C   0  0  0  0  0  0  0  0  0  0  0  0
   -2.0821   -0.4344    0.0000 C   0  0  0  0  0  0  0  0  0  0  0  0
   -1.5972   -1.1018    0.0000 C   0  0  0  0  0  0  0  0  0  0  0  0
   -0.8125   -0.8469    0.0000 C   0  0  0  0  0  0  0  0  0  0  0  0
  2  1  1  0
  3  2  1  0
  3  4  1  0
  4  5  1  0
  5  6  1  0
  7  6  1  0
  8  7  1  0
  9  8  2  0
 10  9  1  0
  1  5  1  0
 10  3  1  0
  6 10  1  0
M  END
>  <name>  (435) 
4,7-Methano-1H-indene, 3a,4,5,6,7,7a-hexahydro-

>  <Outcome>  (435) 
1

>  <SMILES>  (435) 
C1=CC2C3CCC(C3)C2C1

$$$$

     RDKit          2D

  5  4  0  0  0  0  0  0  0  0999 V2000
    0.8250   -0.8250    0.0000 C   0  0  0  0  0  0  0  0  0  0  0  0
    0.8250    0.0000    0.0000 Sn  0  0  0  0  0  4  0  0  0  0  0  0
    0.8250    0.8250    0.0000 C   0  0  0  0  0  0  0  0  0  0  0  0
    1.6500   -0.0000    0.0000 Cl  0  0  0  0  0  0  0  0  0  0  0  0
    0.0000    0.0000    0.0000 Cl  0  0  0  0  0  0  0  0  0  0  0  0
  1  2  1  0
  2  3  1  0
  2  4  1  0
  2  5  1  0
M  END
>  <name>  (436) 
dimethyltin dichloride

>  <Outcome>  (436) 
1

>  <SMILES>  (436) 
C[Sn](C)(Cl)Cl

$$$$

     RDKit          2D

  6  5  0  0  0  0  0  0  0  0999 V2000
    1.2375    0.7145    0.0000 F   0  0  0  0  0  0  0  0  0  0  0  0
    0.8250   -0.0000    0.0000 C   0  0  0  0  0  0  0  0  0  0  0  0
    1.2375   -0.7145    0.0000 F   0  0  0  0  0  0  0  0  0  0  0  0
    0.0000   -0.0000    0.0000 C   0  0  0  0  0  0  0  0  0  0  0  0
   -0.4125   -0.7145    0.0000 F   0  0  0  0  0  0  0  0  0  0  0  0
   -0.4125    0.7145    0.0000 F   0  0  0  0  0  0  0  0  0  0  0  0
  1  2  1  0
  2  3  1  0
  2  4  2  0
  4  5  1  0
  4  6  1  0
M  END
>  <name>  (437) 
tetrafluoroethene

>  <Outcome>  (437) 
0

>  <SMILES>  (437) 
FC(F)=C(F)F

$$$$

     RDKit          2D

  2  1  0  0  0  0  0  0  0  0999 V2000
    0.8250    0.0000    0.0000 C   0  0  0  0  0  0  0  0  0  0  0  0
   -0.0000    0.0000    0.0000 O   0  0  0  0  0  0  0  0  0  0  0  0
  1  2  1  0
M  END
>  <name>  (438) 
methanol

>  <Outcome>  (438) 
0

>  <SMILES>  (438) 
CO

$$$$

     RDKit          2D

 10  9  0  0  0  0  0  0  0  0999 V2000
    5.8559    3.3949    0.0000 C   0  0  0  0  0  0  0  0  0  0  0  0
    5.8559    2.5699    0.0000 N   0  0  0  0  0  0  0  0  0  0  0  0
    5.1414    2.1574    0.0000 C   0  0  0  0  0  0  0  0  0  0  0  0
    4.4270    2.5699    0.0000 C   0  0  0  0  0  0  0  0  0  0  0  0
    3.7125    2.1574    0.0000 C   0  0  0  0  0  0  0  0  0  0  0  0
    2.9980    2.5699    0.0000 N   0  0  0  0  0  0  0  0  0  0  0  0
    6.5704    2.1574    0.0000 C   0  0  0  0  0  0  0  0  0  0  0  0
    7.2849    2.5699    0.0000 C   0  0  0  0  0  0  0  0  0  0  0  0
    7.9993    2.1574    0.0000 C   0  0  0  0  0  0  0  0  0  0  0  0
    8.7138    2.5699    0.0000 N   0  0  0  0  0  0  0  0  0  0  0  0
  1  2  1  0
  2  3  1  0
  3  4  1  0
  4  5  1  0
  5  6  1  0
  2  7  1  0
  7  8  1  0
  8  9  1  0
  9 10  1  0
M  END
>  <name>  (439) 
bis(3-aminopropyl)(methyl)amine

>  <Outcome>  (439) 
1

>  <SMILES>  (439) 
CN(CCCN)CCCN

$$$$

     RDKit          2D

  3  2  0  0  0  0  0  0  0  0999 V2000
    2.1228   -1.5544    0.0000 C   0  0  0  0  0  0  0  0  0  0  0  0
    1.7103   -0.8399    0.0000 C   0  0  0  0  0  0  0  0  0  0  0  0
    0.8853   -0.8399    0.0000 S   0  0  0  0  0  0  0  0  0  0  0  0
  1  2  1  0
  2  3  1  0
M  END
>  <name>  (440) 
ethanethiol

>  <Outcome>  (440) 
1

>  <SMILES>  (440) 
CCS

$$$$

     RDKit          2D

  3  2  0  0  0  0  0  0  0  0999 V2000
    2.8978   -1.9844    0.0000 O   0  0  0  0  0  0  0  0  0  0  0  0
    2.4853   -1.2699    0.0000 C   0  0  0  0  0  0  0  0  0  0  0  0
    1.6603   -1.2699    0.0000 O   0  0  0  0  0  0  0  0  0  0  0  0
  1  2  2  0
  2  3  1  0
M  END
>  <name>  (441) 
formic acid

>  <Outcome>  (441) 
1

>  <SMILES>  (441) 
O=CO

$$$$

     RDKit          2D

 11 11  0  0  0  0  0  0  0  0999 V2000
    0.7145    2.8875    0.0000 F   0  0  0  0  0  0  0  0  0  0  0  0
    0.7145    2.0625    0.0000 C   0  0  0  0  0  0  0  0  0  0  0  0
   -0.1105    2.0625    0.0000 F   0  0  0  0  0  0  0  0  0  0  0  0
    1.5395    2.0625    0.0000 F   0  0  0  0  0  0  0  0  0  0  0  0
    0.7145    1.2375    0.0000 C   0  0  0  0  0  0  0  0  0  0  0  0
    1.4289    0.8250    0.0000 C   0  0  0  0  0  0  0  0  0  0  0  0
    1.4289   -0.0000    0.0000 C   0  0  0  0  0  0  0  0  0  0  0  0
    0.7145   -0.4125    0.0000 C   0  0  0  0  0  0  0  0  0  0  0  0
    0.7145   -1.2375    0.0000 Cl  0  0  0  0  0  0  0  0  0  0  0  0
    0.0000    0.0000    0.0000 C   0  0  0  0  0  0  0  0  0  0  0  0
    0.0000    0.8250    0.0000 C   0  0  0  0  0  0  0  0  0  0  0  0
  1  2  1  0
  2  3  1  0
  2  4  1  0
  2  5  1  0
  5  6  2  0
  6  7  1  0
  7  8  2  0
  8  9  1  0
  8 10  1  0
 10 11  2  0
  5 11  1  0
M  END
>  <name>  (442) 
1-chloro-4-(trifluoromethyl)benzene

>  <Outcome>  (442) 
0

>  <SMILES>  (442) 
FC(F)(F)c1ccc(Cl)cc1

$$$$

     RDKit          2D

 23 24  0  0  0  0  0  0  0  0999 V2000
    0.7145   -2.0625    0.0000 O   0  0  0  0  0  0  0  0  0  0  0  0
    0.7145   -1.2375    0.0000 C   0  0  0  0  0  0  0  0  0  0  0  0
    1.4289   -0.8250    0.0000 O   0  0  0  0  0  0  0  0  0  0  0  0
    2.1434   -1.2375    0.0000 C   0  0  0  0  0  0  0  0  0  0  0  0
    2.8579   -0.8250    0.0000 C   0  0  0  0  0  0  0  0  0  0  0  0
    3.5724   -1.2375    0.0000 O   0  0  0  0  0  0  0  0  0  0  0  0
    4.2868   -0.8250    0.0000 C   0  0  0  0  0  0  0  0  0  0  0  0
    5.0013   -1.2375    0.0000 C   0  0  0  0  0  0  0  0  0  0  0  0
    5.7158   -0.8250    0.0000 O   0  0  0  0  0  0  0  0  0  0  0  0
    6.4302   -1.2375    0.0000 C   0  0  0  0  0  0  0  0  0  0  0  0
    6.4302   -2.0625    0.0000 O   0  0  0  0  0  0  0  0  0  0  0  0
    7.1447   -0.8250    0.0000 C   0  0  0  0  0  0  0  0  0  0  0  0
    7.1447    0.0000    0.0000 C   0  0  0  0  0  0  0  0  0  0  0  0
    7.8592    0.4125    0.0000 C   0  0  0  0  0  0  0  0  0  0  0  0
    8.5737    0.0000    0.0000 C   0  0  0  0  0  0  0  0  0  0  0  0
    8.5737   -0.8250    0.0000 C   0  0  0  0  0  0  0  0  0  0  0  0
    7.8592   -1.2375    0.0000 C   0  0  0  0  0  0  0  0  0  0  0  0
    0.0000   -0.8250    0.0000 C   0  0  0  0  0  0  0  0  0  0  0  0
   -0.7145   -1.2375    0.0000 C   0  0  0  0  0  0  0  0  0  0  0  0
   -1.4289   -0.8250    0.0000 C   0  0  0  0  0  0  0  0  0  0  0  0
   -1.4289    0.0000    0.0000 C   0  0  0  0  0  0  0  0  0  0  0  0
   -0.7145    0.4125    0.0000 C   0  0  0  0  0  0  0  0  0  0  0  0
    0.0000    0.0000    0.0000 C   0  0  0  0  0  0  0  0  0  0  0  0
  1  2  2  0
  2  3  1  0
  3  4  1  0
  4  5  1  0
  5  6  1  0
  6  7  1  0
  7  8  1  0
  8  9  1  0
  9 10  1  0
 10 11  2  0
 10 12  1  0
 12 13  2  0
 13 14  1  0
 14 15  2  0
 15 16  1  0
 16 17  2  0
 12 17  1  0
  2 18  1  0
 18 19  2  0
 19 20  1  0
 20 21  2  0
 21 22  1  0
 22 23  2  0
 18 23  1  0
M  END
>  <name>  (443) 
2-[2-(benzoyloxy)ethoxy]ethyl benzoate

>  <Outcome>  (443) 
0

>  <SMILES>  (443) 
O=C(OCCOCCOC(=O)c1ccccc1)c1ccccc1

$$$$

     RDKit          2D

 40 48  0  0  0  0  0  0  0  0999 V2000
    2.3887    5.0376    0.0000 C   0  0  0  0  0  0  0  0  0  0  0  0
    1.9762    4.3231    0.0000 O   0  0  0  0  0  0  0  0  0  0  0  0
    2.3887    3.6087    0.0000 C   0  0  0  0  0  0  0  0  0  0  0  0
    3.2137    3.6087    0.0000 C   0  0  0  0  0  0  0  0  0  0  0  0
    3.6262    2.8942    0.0000 C   0  0  0  0  0  0  0  0  0  0  0  0
    4.4512    2.8942    0.0000 C   0  0  0  0  0  0  0  0  0  0  0  0
    4.8637    3.6087    0.0000 C   0  0  0  0  0  0  0  0  0  0  0  0
    5.6887    3.6087    0.0000 C   0  0  0  0  0  0  0  0  0  0  0  0
    6.1012    2.8942    0.0000 C   0  0  0  0  0  0  0  0  0  0  0  0
    5.6887    2.1797    0.0000 C   0  0  0  0  0  0  0  0  0  0  0  0
    4.8637    2.1797    0.0000 C   0  0  0  0  0  0  0  0  0  0  0  0
    4.4512    1.4652    0.0000 C   0  0  0  0  0  0  0  0  0  0  0  0
    4.8637    0.7508    0.0000 O   0  0  0  0  0  0  0  0  0  0  0  0
    3.6262    1.4652    0.0000 C   0  0  0  0  0  0  0  0  0  0  0  0
    3.2137    0.7508    0.0000 C   0  0  0  0  0  0  0  0  0  0  0  0
    2.3887    0.7508    0.0000 C   0  0  0  0  0  0  0  0  0  0  0  0
    1.9762    1.4652    0.0000 C   0  0  0  0  0  0  0  0  0  0  0  0
    1.1512    1.4652    0.0000 C   0  0  0  0  0  0  0  0  0  0  0  0
    0.7387    0.7508    0.0000 C   0  0  0  0  0  0  0  0  0  0  0  0
   -0.0863    0.7508    0.0000 C   0  0  0  0  0  0  0  0  0  0  0  0
   -0.4988    1.4652    0.0000 C   0  0  0  0  0  0  0  0  0  0  0  0
   -1.3238    1.4652    0.0000 C   0  0  0  0  0  0  0  0  0  0  0  0
   -1.7363    0.7508    0.0000 O   0  0  0  0  0  0  0  0  0  0  0  0
   -1.7363    2.1797    0.0000 C   0  0  0  0  0  0  0  0  0  0  0  0
   -2.5613    2.1797    0.0000 C   0  0  0  0  0  0  0  0  0  0  0  0
   -2.9738    2.8942    0.0000 C   0  0  0  0  0  0  0  0  0  0  0  0
   -2.5613    3.6087    0.0000 C   0  0  0  0  0  0  0  0  0  0  0  0
   -1.7363    3.6087    0.0000 C   0  0  0  0  0  0  0  0  0  0  0  0
   -1.3238    2.8942    0.0000 C   0  0  0  0  0  0  0  0  0  0  0  0
   -0.4988    2.8942    0.0000 C   0  0  0  0  0  0  0  0  0  0  0  0
   -0.0863    3.6087    0.0000 C   0  0  0  0  0  0  0  0  0  0  0  0
    0.7387    3.6087    0.0000 C   0  0  0  0  0  0  0  0  0  0  0  0
    1.1512    4.3231    0.0000 O   0  0  0  0  0  0  0  0  0  0  0  0
    0.7387    5.0376    0.0000 C   0  0  0  0  0  0  0  0  0  0  0  0
    1.1512    2.8942    0.0000 C   0  0  0  0  0  0  0  0  0  0  0  0
    1.9762    2.8942    0.0000 C   0  0  0  0  0  0  0  0  0  0  0  0
    2.3887    2.1797    0.0000 C   0  0  0  0  0  0  0  0  0  0  0  0
    3.2137    2.1797    0.0000 C   0  0  0  0  0  0  0  0  0  0  0  0
    0.7387    2.1797    0.0000 C   0  0  0  0  0  0  0  0  0  0  0  0
   -0.0863    2.1797    0.0000 C   0  0  0  0  0  0  0  0  0  0  0  0
  1  2  1  0
  2  3  1  0
  3  4  2  0
  4  5  1  0
  5  6  1  0
  6  7  2  0
  7  8  1  0
  8  9  2  0
  9 10  1  0
 10 11  2  0
  6 11  1  0
 11 12  1  0
 12 13  2  0
 12 14  1  0
 14 15  2  0
 15 16  1  0
 16 17  2  0
 17 18  1  0
 18 19  1  0
 19 20  2  0
 20 21  1  0
 21 22  1  0
 22 23  2  0
 22 24  1  0
 24 25  2  0
 25 26  1  0
 26 27  2  0
 27 28  1  0
 28 29  2  0
 24 29  1  0
 29 30  1  0
 30 31  2  0
 31 32  1  0
 32 33  1  0
 33 34  1  0
 32 35  2  0
 35 36  1  0
  3 36  1  0
 36 37  2  0
 17 37  1  0
 37 38  1  0
 14 38  1  0
  5 38  2  0
 35 39  1  0
 18 39  2  0
 39 40  1  0
 21 40  2  0
 30 40  1  0
M  END
>  <name>  (444) 
30,34-dimethoxynonacyclo[18.10.2.2??,????.0??,??????.0????,????.0????,????.0??????,????.0????,??????.0??????,????]tetratriaconta-1(30),2(34),3,5(33),6,8,10,13,15,17,19,22,24,26,28,31-hexadecaene-12,21-dione

>  <Outcome>  (444) 
1

>  <SMILES>  (444) 
COc1cc2c3c(ccc4c5ccc6c7c(cc(OC)c(c1c34)c75)-c1ccccc1C6=O)C(=O)c1ccccc1-2

$$$$

     RDKit          2D

  7  6  0  0  0  0  0  0  0  0999 V2000
    2.5873   -1.6864    0.0000 C   0  0  0  0  0  0  0  0  0  0  0  0
    1.7623   -1.6864    0.0000 C   0  0  0  0  0  0  0  0  0  0  0  0
    1.3498   -0.9720    0.0000 C   0  0  0  0  0  0  0  0  0  0  0  0
    2.0643   -0.5595    0.0000 C   0  0  0  0  0  0  0  0  0  0  0  0
    0.6354   -1.3845    0.0000 C   0  0  0  0  0  0  0  0  0  0  0  0
    0.9373   -0.2575    0.0000 O   0  0  0  0  0  0  0  0  0  0  0  0
    0.1123   -0.2575    0.0000 C   0  0  0  0  0  0  0  0  0  0  0  0
  1  2  1  0
  2  3  1  0
  3  4  1  0
  3  5  1  0
  3  6  1  0
  6  7  1  0
M  END
>  <name>  (445) 
2-methoxy-2-methylbutane

>  <Outcome>  (445) 
1

>  <SMILES>  (445) 
CCC(C)(C)OC

$$$$

     RDKit          2D

  8  8  0  0  0  0  0  0  0  0999 V2000
    0.6078    2.0081    0.0000 O   0  0  0  0  0  0  0  0  0  0  0  0
    0.6078    1.1831    0.0000 C   0  0  0  0  0  0  0  0  0  0  0  0
    1.3223    0.7706    0.0000 C   0  0  0  0  0  0  0  0  0  0  0  0
    1.3223   -0.0544    0.0000 S   0  0  0  0  0  0  0  0  0  0  0  0
    0.6078   -0.4669    0.0000 C   0  0  0  0  0  0  0  0  0  0  0  0
    0.6078   -1.2919    0.0000 O   0  0  0  0  0  0  0  0  0  0  0  0
   -0.1067   -0.0544    0.0000 C   0  0  0  0  0  0  0  0  0  0  0  0
   -0.1067    0.7706    0.0000 S   0  0  0  0  0  0  0  0  0  0  0  0
  1  2  1  0
  2  3  1  0
  3  4  1  0
  4  5  1  0
  5  6  1  0
  5  7  1  0
  7  8  1  0
  2  8  1  0
M  END
>  <name>  (446) 
1,4-dithiane-2,5-diol

>  <Outcome>  (446) 
1

>  <SMILES>  (446) 
OC1CSC(O)CS1

$$$$

     RDKit          2D

  7  6  0  0  0  0  0  0  0  0999 V2000
    2.4750   -1.4289    0.0000 C   0  0  0  0  0  0  0  0  0  0  0  0
    2.0625   -0.7145    0.0000 C   0  0  0  0  0  0  0  0  0  0  0  0
    2.4750    0.0000    0.0000 C   0  0  0  0  0  0  0  0  0  0  0  0
    1.2375   -0.7145    0.0000 C   0  0  0  0  0  0  0  0  0  0  0  0
    0.8250   -1.4289    0.0000 O   0  0  0  0  0  0  0  0  0  0  0  0
    0.8250    0.0000    0.0000 O   0  0  0  0  0  0  0  0  0  0  0  0
    0.0000    0.0000    0.0000 C   0  0  0  0  0  0  0  0  0  0  0  0
  1  2  2  0
  2  3  1  0
  2  4  1  0
  4  5  2  0
  4  6  1  0
  6  7  1  0
M  END
>  <name>  (447) 
methyl 2-methylprop-2-enoate

>  <Outcome>  (447) 
0

>  <SMILES>  (447) 
C=C(C)C(=O)OC

$$$$

     RDKit          2D

  9  9  0  0  0  0  0  0  0  0999 V2000
    2.7760    0.0000    0.0000 C   0  0  0  0  0  0  0  0  0  0  0  0
    1.2760    0.0000    0.0000 C   0  0  0  0  0  0  0  0  0  0  0  0
    0.3943    1.2135    0.0000 C   0  0  0  0  0  0  0  0  0  0  0  0
    0.8578    2.6401    0.0000 O   0  0  0  0  0  0  0  0  0  0  0  0
   -1.0323    0.7500    0.0000 C   0  0  0  0  0  0  0  0  0  0  0  0
   -1.0323   -0.7500    0.0000 C   0  0  0  0  0  0  0  0  0  0  0  0
    0.3943   -1.2135    0.0000 O   0  0  0  0  0  0  0  0  0  0  0  0
   -2.2458   -1.6317    0.0000 C   0  0  0  0  0  0  0  0  0  0  0  0
   -2.2458    1.6317    0.0000 O   0  0  0  0  0  0  0  0  0  0  0  0
  1  2  1  0
  2  3  1  0
  3  4  2  0
  3  5  1  0
  5  6  2  0
  6  7  1  0
  6  8  1  0
  5  9  1  0
  7  2  1  0
M  END
>  <name>  (448) 
4-hydroxy-2,5-dimethylfuran-3-one

>  <Outcome>  (448) 
2

>  <SMILES>  (448) 
CC1=C(O)C(=O)C(C)O1

$$$$

     RDKit          2D

  5  5  0  0  0  0  0  0  0  0999 V2000
    0.5666    1.1125    0.0000 C   0  0  0  0  0  0  0  0  0  0  0  0
    1.2340    0.6276    0.0000 C   0  0  0  0  0  0  0  0  0  0  0  0
    0.9791   -0.1570    0.0000 O   0  0  0  0  0  0  0  0  0  0  0  0
    0.1541   -0.1570    0.0000 C   0  0  0  0  0  0  0  0  0  0  0  0
   -0.1009    0.6276    0.0000 O   0  0  0  0  0  0  0  0  0  0  0  0
  1  2  1  0
  2  3  1  0
  3  4  1  0
  4  5  1  0
  1  5  1  0
M  END
>  <name>  (449) 
1,3-dioxolane

>  <Outcome>  (449) 
0

>  <SMILES>  (449) 
C1COCO1

$$$$

     RDKit          2D

 15 14  0  0  0  0  0  0  0  0999 V2000
   -1.4944    1.0258    0.0000 C   0  0  0  0  0  0  0  0  0  0  0  0
   -0.6694    1.0258    0.0000 C   0  0  0  0  0  0  0  0  0  0  0  0
   -0.2569    0.3113    0.0000 C   0  0  0  0  0  0  0  0  0  0  0  0
   -0.2569    1.7403    0.0000 C   0  0  0  0  0  0  0  0  0  0  0  0
    0.5681    1.7403    0.0000 N   0  0  0  0  0  0  0  0  0  0  0  0
    0.9806    2.4547    0.0000 C   0  0  0  0  0  0  0  0  0  0  0  0
    0.5681    3.1692    0.0000 O   0  0  0  0  0  0  0  0  0  0  0  0
    1.8056    2.4547    0.0000 O   0  0  0  0  0  0  0  0  0  0  0  0
    2.2181    3.1692    0.0000 C   0  0  0  0  0  0  0  0  0  0  0  0
    2.6306    3.8837    0.0000 C   0  0  0  0  0  0  0  0  0  0  0  0
    2.9326    2.7567    0.0000 C   0  0  0  0  0  0  0  0  0  0  0  0
    1.5036    3.5817    0.0000 C   0  0  0  0  0  0  0  0  0  0  0  0
   -0.6694    2.4547    0.0000 C   0  0  0  0  0  0  0  0  0  0  0  0
   -0.2569    3.1692    0.0000 O   0  0  0  0  0  0  0  0  0  0  0  0
   -1.4944    2.4547    0.0000 O   0  0  0  0  0  0  0  0  0  0  0  0
  1  2  1  0
  2  3  1  0
  2  4  1  0
  4  5  1  0
  5  6  1  0
  6  7  2  0
  6  8  1  0
  8  9  1  0
  9 10  1  0
  9 11  1  0
  9 12  1  0
  4 13  1  0
 13 14  1  0
 13 15  2  0
M  END
>  <name>  (450) 
L-Valine, N-[(1,1-dimethylethoxy)carbonyl]-

>  <Outcome>  (450) 
1

>  <SMILES>  (450) 
CC(C)C(NC(=O)OC(C)(C)C)C(=O)O

$$$$

     RDKit          2D

  5  3  0  0  0  0  0  0  0  0999 V2000
    0.0000    0.0000    0.0000 B   0  0  0  0  0  0  0  0  0  0  0  0
    0.0000    1.5000    0.0000 O   0  0  0  0  0  0  0  0  0  0  0  0
   -0.0000   -1.5000    0.0000 O   0  0  0  0  0  0  0  0  0  0  0  0
    1.2990   -2.2500    0.0000 O   0  0  0  0  0  1  0  0  0  0  0  0
    2.2990    0.0000    0.0000 Na  0  0  0  0  0 15  0  0  0  0  0  0
  1  2  2  0
  1  3  1  0
  3  4  1  0
M  CHG  2   4  -1   5   1
M  END
>  <name>  (451) 
sodium;oxidooxy(oxo)borane

>  <Outcome>  (451) 
2

>  <SMILES>  (451) 
O=BO[O-].[Na+]

$$$$

     RDKit          2D

  7  6  0  0  0  0  0  0  0  0999 V2000
    0.0000    0.0000    0.0000 C   0  0  0  0  0  0  0  0  0  0  0  0
    1.2990    0.7500    0.0000 C   0  0  0  0  0  0  0  0  0  0  0  0
    2.5981   -0.0000    0.0000 O   0  0  0  0  0  0  0  0  0  0  0  0
    3.8971    0.7500    0.0000 C   0  0  0  0  0  0  0  0  0  0  0  0
    3.8971    2.2500    0.0000 O   0  0  0  0  0  0  0  0  0  0  0  0
    5.1962   -0.0000    0.0000 O   0  0  0  0  0  0  0  0  0  0  0  0
    6.4952    0.7500    0.0000 C   0  0  0  0  0  0  0  0  0  0  0  0
  1  2  1  0
  2  3  1  0
  3  4  1  0
  4  5  2  0
  4  6  1  0
  6  7  1  0
M  END
>  <name>  (452) 
ethyl methyl carbonate

>  <Outcome>  (452) 
2

>  <SMILES>  (452) 
CCOC(=O)OC

$$$$

     RDKit          2D

  8  8  0  0  0  0  0  0  0  0999 V2000
    1.5000    0.0000    0.0000 C   0  0  0  0  0  0  0  0  0  0  0  0
    0.7500   -1.2990    0.0000 C   0  0  0  0  0  0  0  0  0  0  0  0
   -0.7500   -1.2990    0.0000 N   0  0  0  0  0  0  0  0  0  0  0  0
   -1.5000    0.0000    0.0000 C   0  0  0  0  0  0  0  0  0  0  0  0
   -0.7500    1.2990    0.0000 C   0  0  0  0  0  0  0  0  0  0  0  0
    0.7500    1.2990    0.0000 C   0  0  0  0  0  0  0  0  0  0  0  0
    1.5000    2.5981    0.0000 C   0  0  0  0  0  0  0  0  0  0  0  0
    3.0000    2.5981    0.0000 O   0  0  0  0  0  0  0  0  0  0  0  0
  1  2  2  0
  2  3  1  0
  3  4  2  0
  4  5  1  0
  5  6  2  0
  6  7  1  0
  7  8  2  0
  6  1  1  0
M  END
>  <name>  (453) 
pyridine-4-carbaldehyde

>  <Outcome>  (453) 
2

>  <SMILES>  (453) 
O=Cc1ccncc1

$$$$

     RDKit          2D

 14 13  0  0  0  0  0  0  0  0999 V2000
    5.0558   -0.6659    0.0000 C   0  0  0  0  0  0  0  0  0  0  0  0
    4.6433    0.0486    0.0000 C   0  0  0  0  0  0  0  0  0  0  0  0
    5.0558    0.7630    0.0000 O   0  0  0  0  0  0  0  0  0  0  0  0
    3.8183    0.0486    0.0000 O   0  0  0  0  0  0  0  0  0  0  0  0
    3.4058    0.7630    0.0000 C   0  0  0  0  0  0  0  0  0  0  0  0
    4.1202    1.1755    0.0000 C   0  0  0  0  0  0  0  0  0  0  0  0
    2.6913    0.3505    0.0000 C   0  0  0  0  0  0  0  0  0  0  0  0
    2.9933    1.4775    0.0000 C   0  0  0  0  0  0  0  0  0  0  0  0
    2.1683    1.4775    0.0000 C   0  0  0  0  0  0  0  0  0  0  0  0
    1.7558    2.1920    0.0000 C   0  0  0  0  0  0  0  0  0  0  0  0
    0.9308    2.1920    0.0000 C   0  0  0  0  0  0  0  0  0  0  0  0
    0.5183    1.4775    0.0000 C   0  0  0  0  0  0  0  0  0  0  0  0
    0.5183    2.9064    0.0000 C   0  0  0  0  0  0  0  0  0  0  0  0
   -0.3067    2.9064    0.0000 C   0  0  0  0  0  0  0  0  0  0  0  0
  1  2  1  0
  2  3  2  0
  2  4  1  0
  4  5  1  0
  5  6  1  0
  5  7  1  0
  5  8  1  0
  8  9  1  0
  9 10  1  0
 10 11  1  0
 11 12  2  0
 11 13  1  0
 13 14  2  0
M  END
>  <name>  (454) 
Turpentine oils

>  <Outcome>  (454) 
1

>  <SMILES>  (454) 
C=CC(=C)CCCC(C)(C)OC(C)=O

$$$$

     RDKit          2D

  6  5  0  0  0  0  0  0  0  0999 V2000
    1.1688   -0.6960    0.0000 N   0  0  0  0  0  0  0  0  0  0  0  0
    0.7563    0.0184    0.0000 N   0  0  0  0  0  0  0  0  0  0  0  0
   -0.0687    0.0184    0.0000 C   0  0  0  0  0  0  0  0  0  0  0  0
   -0.4812   -0.6960    0.0000 S   0  0  0  0  0  0  0  0  0  0  0  0
   -0.4812    0.7329    0.0000 N   0  0  0  0  0  0  0  0  0  0  0  0
   -1.3062    0.7329    0.0000 N   0  0  0  0  0  0  0  0  0  0  0  0
  1  2  1  0
  2  3  1  0
  3  4  2  0
  3  5  1  0
  5  6  1  0
M  END
>  <name>  (455) 
Thiocarbazide

>  <Outcome>  (455) 
1

>  <SMILES>  (455) 
NNC(=S)NN

$$$$

     RDKit          2D

  5  4  0  0  0  0  0  0  0  0999 V2000
    1.3411   -0.3243    0.0000 C   0  0  0  0  0  0  0  0  0  0  0  0
    0.5161   -0.3243    0.0000 C   0  0  0  0  0  0  0  0  0  0  0  0
    0.1036   -1.0387    0.0000 O   0  0  0  0  0  0  0  0  0  0  0  0
    0.1036    0.3902    0.0000 C   0  0  0  0  0  0  0  0  0  0  0  0
   -0.7214    0.3902    0.0000 Cl  0  0  0  0  0  0  0  0  0  0  0  0
  1  2  1  0
  2  3  2  0
  2  4  1  0
  4  5  1  0
M  END
>  <name>  (456) 
1-Chloropropan-2-one

>  <Outcome>  (456) 
1

>  <SMILES>  (456) 
CC(=O)CCl

$$$$

     RDKit          2D

  6  5  0  0  0  0  0  0  0  0999 V2000
    0.7746    1.3786    0.0000 C   0  0  0  0  0  0  0  0  0  0  0  0
    1.1871    0.6641    0.0000 C   0  0  0  0  0  0  0  0  0  0  0  0
    2.0121    0.6641    0.0000 O   0  0  0  0  0  0  0  0  0  0  0  0
    0.7746   -0.0503    0.0000 C   0  0  0  0  0  0  0  0  0  0  0  0
    1.1871   -0.7648    0.0000 O   0  0  0  0  0  0  0  0  0  0  0  0
   -0.0504   -0.0503    0.0000 O   0  0  0  0  0  0  0  0  0  0  0  0
  1  2  1  0
  2  3  1  0
  2  4  1  0
  4  5  2  0
  4  6  1  0
M  END
>  <name>  (457) 
2-hydroxypropanoic acid

>  <Outcome>  (457) 
0

>  <SMILES>  (457) 
CC(O)C(=O)O

$$$$

     RDKit          2D

 10  9  0  0  0  0  0  0  0  0999 V2000
    1.2375    0.7145    0.0000 F   0  0  0  0  0  0  0  0  0  0  0  0
    0.8250    0.0000    0.0000 C   0  0  0  0  0  0  0  0  0  0  0  0
    1.2375   -0.7145    0.0000 F   0  0  0  0  0  0  0  0  0  0  0  0
   -0.0000    0.0000    0.0000 C   0  0  0  0  0  0  0  0  0  0  0  0
   -0.4125    0.7145    0.0000 F   0  0  0  0  0  0  0  0  0  0  0  0
   -0.4125   -0.7145    0.0000 O   0  0  0  0  0  0  0  0  0  0  0  0
    0.0000   -1.4289    0.0000 C   0  0  0  0  0  0  0  0  0  0  0  0
    0.4125   -2.1434    0.0000 F   0  0  0  0  0  0  0  0  0  0  0  0
   -0.7145   -1.8414    0.0000 F   0  0  0  0  0  0  0  0  0  0  0  0
    0.7145   -1.0164    0.0000 F   0  0  0  0  0  0  0  0  0  0  0  0
  1  2  1  0
  2  3  1  0
  2  4  2  0
  4  5  1  0
  4  6  1  0
  6  7  1  0
  7  8  1  0
  7  9  1  0
  7 10  1  0
M  END
>  <name>  (458) 
1,1,2-trifluoro-2-(trifluoromethoxy)ethene

>  <Outcome>  (458) 
0

>  <SMILES>  (458) 
FC(F)=C(F)OC(F)(F)F

$$$$

     RDKit          2D

 11 10  0  0  0  0  0  0  0  0999 V2000
    2.9146    2.4767    0.0000 C   0  0  0  0  0  0  0  0  0  0  0  0
    3.6291    2.0642    0.0000 C   0  0  0  0  0  0  0  0  0  0  0  0
    3.6291    1.2392    0.0000 C   0  0  0  0  0  0  0  0  0  0  0  0
    4.3436    2.4767    0.0000 C   0  0  0  0  0  0  0  0  0  0  0  0
    5.0580    2.0642    0.0000 C   0  0  0  0  0  0  0  0  0  0  0  0
    5.7725    2.4767    0.0000 O   0  0  0  0  0  0  0  0  0  0  0  0
    6.4870    2.0642    0.0000 C   0  0  0  0  0  0  0  0  0  0  0  0
    7.2015    2.4767    0.0000 C   0  0  0  0  0  0  0  0  0  0  0  0
    7.9159    2.0642    0.0000 C   0  0  0  0  0  0  0  0  0  0  0  0
    8.6304    2.4767    0.0000 C   0  0  0  0  0  0  0  0  0  0  0  0
    7.9159    1.2392    0.0000 C   0  0  0  0  0  0  0  0  0  0  0  0
  1  2  1  0
  2  3  1  0
  2  4  1  0
  4  5  1  0
  5  6  1  0
  6  7  1  0
  7  8  1  0
  8  9  1  0
  9 10  1  0
  9 11  1  0
M  END
>  <name>  (459) 
1,1'-oxybis(3-methylbutane)

>  <Outcome>  (459) 
1

>  <SMILES>  (459) 
CC(C)CCOCCC(C)C

$$$$

     RDKit          2D

  8  7  0  0  0  0  0  0  0  0999 V2000
    1.6438    1.8848    0.0000 C   0  0  0  0  0  0  0  0  0  0  0  0
    2.3583    1.4723    0.0000 C   0  0  0  0  0  0  0  0  0  0  0  0
    3.0727    1.8848    0.0000 C   0  0  0  0  0  0  0  0  0  0  0  0
    3.0727    2.7098    0.0000 C   0  0  0  0  0  0  0  0  0  0  0  0
    3.7872    1.4723    0.0000 N   0  0  0  0  0  0  0  0  0  0  0  0
    4.5017    1.8848    0.0000 C   0  0  0  0  0  0  0  0  0  0  0  0
    5.2161    1.4723    0.0000 C   0  0  0  0  0  0  0  0  0  0  0  0
    5.9306    1.8848    0.0000 O   0  0  0  0  0  0  0  0  0  0  0  0
  1  2  1  0
  2  3  1  0
  3  4  1  0
  3  5  1  0
  5  6  1  0
  6  7  1  0
  7  8  1  0
M  END
>  <name>  (460) 
2-(sec-butylamino)ethanol

>  <Outcome>  (460) 
1

>  <SMILES>  (460) 
CCC(C)NCCO

$$$$

     RDKit          2D

 15 14  0  0  0  0  0  0  0  0999 V2000
    4.7586    3.5734    0.0000 C   0  0  0  0  0  0  0  0  0  0  0  0
    5.4730    3.9859    0.0000 C   0  0  0  0  0  0  0  0  0  0  0  0
    6.1875    3.5734    0.0000 C   0  0  0  0  0  0  0  0  0  0  0  0
    6.9020    3.9859    0.0000 C   0  0  0  0  0  0  0  0  0  0  0  0
    7.6164    3.5734    0.0000 C   0  0  0  0  0  0  0  0  0  0  0  0
    8.3309    3.9859    0.0000 C   0  0  0  0  0  0  0  0  0  0  0  0
    9.0454    3.5734    0.0000 C   0  0  0  0  0  0  0  0  0  0  0  0
    9.7599    3.9859    0.0000 C   0  0  0  0  0  0  0  0  0  0  0  0
   10.4743    3.5734    0.0000 C   0  0  0  0  0  0  0  0  0  0  0  0
   11.1888    3.9859    0.0000 C   0  0  0  0  0  0  0  0  0  0  0  0
   11.9033    3.5734    0.0000 C   0  0  0  0  0  0  0  0  0  0  0  0
   11.9033    2.7484    0.0000 O   0  0  0  0  0  0  0  0  0  0  0  0
   12.6177    3.9859    0.0000 O   0  0  0  0  0  0  0  0  0  0  0  0
   13.3322    3.5734    0.0000 C   0  0  0  0  0  0  0  0  0  0  0  0
   14.0467    3.9859    0.0000 C   0  0  0  0  0  0  0  0  0  0  0  0
  1  2  2  0
  2  3  1  0
  3  4  1  0
  4  5  1  0
  5  6  1  0
  6  7  1  0
  7  8  1  0
  8  9  1  0
  9 10  1  0
 10 11  1  0
 11 12  2  0
 11 13  1  0
 13 14  1  0
 14 15  1  0
M  END
>  <name>  (461) 
ethyl undec-10-enoate

>  <Outcome>  (461) 
0

>  <SMILES>  (461) 
C=CCCCCCCCCC(=O)OCC

$$$$

     RDKit          2D

  7  6  0  0  0  0  0  0  0  0999 V2000
    0.1105   -1.2375    0.0000 C   0  0  0  0  0  0  0  0  0  0  0  0
    0.8250   -0.8250    0.0000 C   0  0  0  0  0  0  0  0  0  0  0  0
    1.5395   -1.2375    0.0000 F   0  0  0  0  0  0  0  0  0  0  0  0
    0.8250    0.0000    0.0000 C   0  0  0  0  0  0  0  0  0  0  0  0
    0.8250    0.8250    0.0000 F   0  0  0  0  0  0  0  0  0  0  0  0
    1.6500    0.0000    0.0000 F   0  0  0  0  0  0  0  0  0  0  0  0
   -0.0000    0.0000    0.0000 F   0  0  0  0  0  0  0  0  0  0  0  0
  1  2  2  0
  2  3  1  0
  2  4  1  0
  4  5  1  0
  4  6  1  0
  4  7  1  0
M  END
>  <name>  (462) 
2,3,3,3-tetrafluoroprop-1-ene

>  <Outcome>  (462) 
0

>  <SMILES>  (462) 
C=C(F)C(F)(F)F

$$$$

     RDKit          2D

  4  3  0  0  0  0  0  0  0  0999 V2000
    1.3885   -0.1510    0.0000 Cl  0  0  0  0  0  0  0  0  0  0  0  0
    0.5635   -0.1510    0.0000 C   0  0  0  0  0  0  0  0  0  0  0  0
    0.1510    0.5635    0.0000 C   0  0  0  0  0  0  0  0  0  0  0  0
   -0.6740    0.5635    0.0000 Cl  0  0  0  0  0  0  0  0  0  0  0  0
  1  2  1  0
  2  3  1  0
  3  4  1  0
M  END
>  <name>  (463) 
1,2-Dichloroethane

>  <Outcome>  (463) 
1

>  <SMILES>  (463) 
ClCCCl

$$$$

     RDKit          2D

 18 20  0  0  0  0  0  0  0  0999 V2000
   -2.0348    0.2648    0.0000 Cl  0  0  0  0  0  0  0  0  0  0  0  0
   -1.3203    0.6773    0.0000 C   0  0  0  0  0  0  0  0  0  0  0  0
   -1.3203    1.5023    0.0000 C   0  0  0  0  0  0  0  0  0  0  0  0
   -2.0348    1.9148    0.0000 Cl  0  0  0  0  0  0  0  0  0  0  0  0
   -0.6058    1.9148    0.0000 C   0  0  0  0  0  0  0  0  0  0  0  0
   -0.6058    2.7398    0.0000 Cl  0  0  0  0  0  0  0  0  0  0  0  0
    0.1086    1.5023    0.0000 C   0  0  0  0  0  0  0  0  0  0  0  0
    0.1086    0.6773    0.0000 C   0  0  0  0  0  0  0  0  0  0  0  0
    0.8933    0.4224    0.0000 C   0  0  0  0  0  0  0  0  0  0  0  0
    1.1482   -0.3623    0.0000 O   0  0  0  0  0  0  0  0  0  0  0  0
    1.3782    1.0898    0.0000 O   0  0  0  0  0  0  0  0  0  0  0  0
    0.8933    1.7572    0.0000 C   0  0  0  0  0  0  0  0  0  0  0  0
    1.1482    2.5419    0.0000 O   0  0  0  0  0  0  0  0  0  0  0  0
   -0.6058    0.2648    0.0000 C   0  0  0  0  0  0  0  0  0  0  0  0
   -0.6058   -0.5602    0.0000 Cl  0  0  0  0  0  0  0  0  0  0  0  0
   -0.8121    1.0898    0.0000 C   0  0  0  0  0  0  0  0  0  0  0  0
   -1.6024    0.8530    0.0000 Cl  0  0  0  0  0  0  0  0  0  0  0  0
   -1.6024    1.3266    0.0000 Cl  0  0  0  0  0  0  0  0  0  0  0  0
  1  2  1  0
  3  2  2  0
  3  4  1  0
  5  3  1  0
  5  6  1  0
  5  7  1  0
  8  7  1  0
  9  8  1  0
  9 10  2  0
 11  9  1  0
 12 11  1  0
 12 13  2  0
  8 14  1  0
 14 15  1  0
 14 16  1  0
 16 17  1  0
 16 18  1  0
  2 14  1  0
 16  5  1  0
  7 12  1  0
M  END
>  <name>  (464) 
Chlorendic anhydride

>  <Outcome>  (464) 
0

>  <SMILES>  (464) 
O=C1OC(=O)C2C1C1(Cl)C(Cl)=C(Cl)C2(Cl)C1(Cl)Cl

$$$$

     RDKit          2D

  9  8  0  0  0  0  0  0  0  0999 V2000
    0.0000    0.0000    0.0000 C   0  0  0  0  0  0  0  0  0  0  0  0
    1.2990    0.7500    0.0000 C   0  0  0  0  0  0  0  0  0  0  0  0
    2.5981   -0.0000    0.0000 C   0  0  0  0  0  0  0  0  0  0  0  0
    3.8971    0.7500    0.0000 O   0  0  0  0  0  0  0  0  0  0  0  0
    5.1962   -0.0000    0.0000 C   0  0  0  0  0  0  0  0  0  0  0  0
    5.9462    1.2990    0.0000 C   0  0  0  0  0  0  0  0  0  0  0  0
    4.4462   -1.2990    0.0000 C   0  0  0  0  0  0  0  0  0  0  0  0
    6.4952   -0.7500    0.0000 C   0  0  0  0  0  0  0  0  0  0  0  0
    1.2990    2.2500    0.0000 O   0  0  0  0  0  0  0  0  0  0  0  0
  1  2  1  0
  2  3  1  0
  3  4  1  0
  4  5  1  0
  5  6  1  0
  5  7  1  0
  5  8  1  0
  2  9  1  0
M  END
>  <name>  (465) 
1-[(2-methylpropan-2-yl)oxy]propan-2-ol

>  <Outcome>  (465) 
2

>  <SMILES>  (465) 
CC(O)COC(C)(C)C

$$$$

     RDKit          2D

  9  6  0  0  0  0  0  0  0  0999 V2000
    0.0000    0.0000    0.0000 N   0  0  0  0  0  4  0  0  0  0  0  0
   -0.0000   -1.5000    0.0000 O   0  0  0  0  0  0  0  0  0  0  0  0
    1.2990    0.7500    0.0000 O   0  0  0  0  0  1  0  0  0  0  0  0
   -1.2990    0.7500    0.0000 O   0  0  0  0  0  1  0  0  0  0  0  0
    0.0000    3.2500    0.0000 N   0  0  0  0  0  4  0  0  0  0  0  0
   -0.0000    1.7500    0.0000 O   0  0  0  0  0  0  0  0  0  0  0  0
    1.2990    4.0000    0.0000 O   0  0  0  0  0  1  0  0  0  0  0  0
   -1.2990    4.0000    0.0000 O   0  0  0  0  0  1  0  0  0  0  0  0
    2.2990    0.0000    0.0000 Pd  0  0  0  0  0 15  0  0  0  0  0  0
  1  2  2  0
  1  3  1  0
  1  4  1  0
  5  6  2  0
  5  7  1  0
  5  8  1  0
M  CHG  7   1   1   3  -1   4  -1   5   1   7  -1   8  -1   9   2
M  END
>  <name>  (466) 
palladium(2+);dinitrate

>  <Outcome>  (466) 
2

>  <SMILES>  (466) 
O=[N+]([O-])[O-].O=[N+]([O-])[O-].[Pd+2]

$$$$

     RDKit          2D

 12 12  0  0  0  0  0  0  0  0999 V2000
    3.0000    0.0000    0.0000 C   0  0  0  0  0  0  0  0  0  0  0  0
    1.5000    0.0000    0.0000 C   0  0  0  0  0  0  0  0  0  0  0  0
    0.7500   -1.2990    0.0000 C   0  0  0  0  0  0  0  0  0  0  0  0
   -0.7500   -1.2990    0.0000 C   0  0  0  0  0  0  0  0  0  0  0  0
   -1.5000    0.0000    0.0000 C   0  0  0  0  0  0  0  0  0  0  0  0
   -0.7500    1.2990    0.0000 C   0  0  0  0  0  0  0  0  0  0  0  0
    0.7500    1.2990    0.0000 C   0  0  0  0  0  0  0  0  0  0  0  0
   -1.5000    2.5981    0.0000 C   0  0  0  0  0  0  0  0  0  0  0  0
   -3.0000    0.0000    0.0000 C   0  0  0  0  0  0  0  0  0  0  0  0
   -3.7500    1.2990    0.0000 O   0  0  0  0  0  0  0  0  0  0  0  0
   -3.7500   -1.2990    0.0000 Cl  0  0  0  0  0  0  0  0  0  0  0  0
   -1.5000   -2.5981    0.0000 C   0  0  0  0  0  0  0  0  0  0  0  0
  1  2  1  0
  2  3  2  0
  3  4  1  0
  4  5  2  0
  5  6  1  0
  6  7  2  0
  6  8  1  0
  5  9  1  0
  9 10  2  0
  9 11  1  0
  4 12  1  0
  7  2  1  0
M  END
>  <name>  (467) 
2,4,6-trimethylbenzoyl chloride

>  <Outcome>  (467) 
2

>  <SMILES>  (467) 
Cc1cc(C)c(C(=O)Cl)c(C)c1

$$$$

     RDKit          2D

 11 10  0  0  0  0  0  0  0  0999 V2000
    0.0000    0.0000    0.0000 C   0  0  0  0  0  0  0  0  0  0  0  0
    1.2990    0.7500    0.0000 C   0  0  0  0  0  0  0  0  0  0  0  0
    2.5981   -0.0000    0.0000 C   0  0  0  0  0  0  0  0  0  0  0  0
    1.2990    2.2500    0.0000 C   0  0  0  0  0  0  0  0  0  0  0  0
    2.5981    3.0000    0.0000 C   0  0  0  0  0  0  0  0  0  0  0  0
    2.5981    4.5000    0.0000 C   0  0  0  0  0  0  0  0  0  0  0  0
    3.8971    5.2500    0.0000 C   0  0  0  0  0  0  0  0  0  0  0  0
    3.8971    6.7500    0.0000 C   0  0  0  0  0  0  0  0  0  0  0  0
    5.1962    7.5000    0.0000 C   0  0  0  0  0  0  0  0  0  0  0  0
    5.1962    9.0000    0.0000 C   0  0  0  0  0  0  0  0  0  0  0  0
    6.4952    9.7500    0.0000 O   0  0  0  0  0  0  0  0  0  0  0  0
  1  2  1  0
  2  3  1  0
  2  4  1  0
  4  5  1  0
  5  6  1  0
  6  7  1  0
  7  8  1  0
  8  9  1  0
  9 10  1  0
 10 11  1  0
M  END
>  <name>  (468) 
8-methylnonan-1-ol

>  <Outcome>  (468) 
2

>  <SMILES>  (468) 
CC(C)CCCCCCCO

$$$$

     RDKit          2D

  4  3  0  0  0  0  0  0  0  0999 V2000
    1.2375    0.7145    0.0000 Cl  0  0  0  0  0  0  0  0  0  0  0  0
    0.8250    0.0000    0.0000 C   0  0  0  0  0  0  0  0  0  0  0  0
    0.0000    0.0000    0.0000 C   0  0  0  0  0  0  0  0  0  0  0  0
   -0.4125   -0.7145    0.0000 Cl  0  0  0  0  0  0  0  0  0  0  0  0
  2  1  1  0
  2  3  2  3
  3  4  1  0
M  END
>  <name>  (469) 
(E)-1,2-dichloroethene

>  <Outcome>  (469) 
0

>  <SMILES>  (469) 
ClC=CCl

$$$$

     RDKit          2D

  6  6  0  0  0  0  0  0  0  0999 V2000
    0.7145    1.2355    0.0000 C   0  0  0  0  0  0  0  0  0  0  0  0
    1.4289    0.8230    0.0000 C   0  0  0  0  0  0  0  0  0  0  0  0
    1.4289   -0.0020    0.0000 C   0  0  0  0  0  0  0  0  0  0  0  0
    0.7145   -0.4145    0.0000 N   0  0  0  0  0  0  0  0  0  0  0  0
    0.0000   -0.0020    0.0000 C   0  0  0  0  0  0  0  0  0  0  0  0
    0.0000    0.8230    0.0000 C   0  0  0  0  0  0  0  0  0  0  0  0
  1  2  1  0
  2  3  1  0
  3  4  1  0
  4  5  1  0
  5  6  1  0
  1  6  1  0
M  END
>  <name>  (470) 
piperidine

>  <Outcome>  (470) 
1

>  <SMILES>  (470) 
C1CCNCC1

$$$$

     RDKit          2D

  7  6  0  0  0  0  0  0  0  0999 V2000
    1.3853    2.2962    0.0000 C   0  0  0  0  0  0  0  0  0  0  0  0
    0.9728    1.5817    0.0000 C   0  0  0  0  0  0  0  0  0  0  0  0
    0.1478    1.5817    0.0000 C   0  0  0  0  0  0  0  0  0  0  0  0
    1.3853    0.8672    0.0000 O   0  0  0  0  0  0  0  0  0  0  0  0
    0.9728    0.1528    0.0000 C   0  0  0  0  0  0  0  0  0  0  0  0
    1.3853   -0.5617    0.0000 C   0  0  0  0  0  0  0  0  0  0  0  0
    0.1478    0.1528    0.0000 O   0  0  0  0  0  0  0  0  0  0  0  0
  1  2  1  0
  2  3  2  0
  2  4  1  0
  4  5  1  0
  5  6  1  0
  5  7  2  0
M  END
>  <name>  (471) 
Isopropenyl acetate

>  <Outcome>  (471) 
0

>  <SMILES>  (471) 
C=C(C)OC(C)=O

$$$$

     RDKit          2D

 22 22  0  0  0  0  0  0  0  0999 V2000
    3.5389   -7.8975    0.0000 C   0  0  0  0  0  0  0  0  0  0  0  0
    4.2533   -7.4850    0.0000 C   0  0  0  0  0  0  0  0  0  0  0  0
    4.9678   -7.8975    0.0000 C   0  0  0  0  0  0  0  0  0  0  0  0
    5.6823   -7.4850    0.0000 C   0  0  0  0  0  0  0  0  0  0  0  0
    6.3967   -7.8975    0.0000 C   0  0  0  0  0  0  0  0  0  0  0  0
    7.1112   -7.4850    0.0000 C   0  0  0  0  0  0  0  0  0  0  0  0
    7.8257   -7.8975    0.0000 C   0  0  0  0  0  0  0  0  0  0  0  0
    8.5401   -7.4850    0.0000 C   0  0  0  0  0  0  0  0  0  0  0  0
    9.2546   -7.8975    0.0000 C   0  0  0  0  0  0  0  0  0  0  0  0
    9.9691   -7.4850    0.0000 C   0  0  0  0  0  0  0  0  0  0  0  0
   10.6836   -7.8975    0.0000 C   0  0  0  0  0  0  0  0  0  0  0  0
   11.3980   -7.4850    0.0000 C   0  0  0  0  0  0  0  0  0  0  0  0
   12.1125   -7.8975    0.0000 C   0  0  0  0  0  0  0  0  0  0  0  0
   12.8270   -7.4850    0.0000 C   0  0  0  0  0  0  0  0  0  0  0  0
   13.5414   -7.8975    0.0000 C   0  0  0  0  0  0  0  0  0  0  0  0
   13.5414   -8.7225    0.0000 C   0  0  0  0  0  0  0  0  0  0  0  0
   12.8270   -9.1350    0.0000 C   0  0  0  0  0  0  0  0  0  0  0  0
   12.1125   -8.7225    0.0000 C   0  0  0  0  0  0  0  0  0  0  0  0
   11.3980   -9.1350    0.0000 S   0  0  0  0  0  0  0  0  0  0  0  0
   10.6836   -9.5475    0.0000 O   0  0  0  0  0  0  0  0  0  0  0  0
   10.9855   -8.4206    0.0000 O   0  0  0  0  0  0  0  0  0  0  0  0
   11.8105   -9.8495    0.0000 O   0  0  0  0  0  0  0  0  0  0  0  0
  1  2  1  0
  2  3  1  0
  3  4  1  0
  4  5  1  0
  5  6  1  0
  6  7  1  0
  7  8  1  0
  8  9  1  0
  9 10  1  0
 10 11  1  0
 11 12  1  0
 12 13  1  0
 13 14  2  0
 14 15  1  0
 15 16  2  0
 16 17  1  0
 17 18  2  0
 13 18  1  0
 18 19  1  0
 19 20  2  0
 19 21  2  0
 19 22  1  0
M  END
>  <name>  (472) 
calcium dodecylbenzenesulphonate

>  <Outcome>  (472) 
1

>  <SMILES>  (472) 
CCCCCCCCCCCCc1ccccc1S(=O)(=O)O

$$$$

     RDKit          2D

 16 15  0  0  0  0  0  0  0  0999 V2000
    0.1105    0.4133    0.0000 C   0  0  0  0  0  0  0  0  0  0  0  0
    0.8250    0.0008    0.0000 C   0  0  0  0  0  0  0  0  0  0  0  0
    1.5395    0.4133    0.0000 C   0  0  0  0  0  0  0  0  0  0  0  0
    2.2539    0.8258    0.0000 C   0  0  0  0  0  0  0  0  0  0  0  0
    1.9520   -0.3011    0.0000 O   0  0  0  0  0  0  0  0  0  0  0  0
    1.5395   -1.0156    0.0000 O   0  0  0  0  0  0  0  0  0  0  0  0
    1.9520   -1.7301    0.0000 C   0  0  0  0  0  0  0  0  0  0  0  0
    2.3645   -2.4446    0.0000 C   0  0  0  0  0  0  0  0  0  0  0  0
    2.6664   -1.3176    0.0000 C   0  0  0  0  0  0  0  0  0  0  0  0
    1.2375   -2.1426    0.0000 C   0  0  0  0  0  0  0  0  0  0  0  0
    1.1270    1.1278    0.0000 O   0  0  0  0  0  0  0  0  0  0  0  0
    1.5395    1.8423    0.0000 O   0  0  0  0  0  0  0  0  0  0  0  0
    1.1270    2.5567    0.0000 C   0  0  0  0  0  0  0  0  0  0  0  0
    0.7145    3.2712    0.0000 C   0  0  0  0  0  0  0  0  0  0  0  0
    1.8414    2.9692    0.0000 C   0  0  0  0  0  0  0  0  0  0  0  0
    0.4125    2.1442    0.0000 C   0  0  0  0  0  0  0  0  0  0  0  0
  1  2  1  0
  2  3  1  0
  3  4  1  0
  3  5  1  0
  5  6  1  0
  6  7  1  0
  7  8  1  0
  7  9  1  0
  7 10  1  0
  3 11  1  0
 11 12  1  0
 12 13  1  0
 13 14  1  0
 13 15  1  0
 13 16  1  0
M  END
>  <name>  (473) 
di-tert-butyl sec-butylidene diperoxide

>  <Outcome>  (473) 
1

>  <SMILES>  (473) 
CCC(C)(OOC(C)(C)C)OOC(C)(C)C

$$$$

     RDKit          2D

 10 10  0  0  0  0  0  0  0  0999 V2000
    0.7145    2.0625    0.0000 C   0  0  0  0  0  0  0  0  0  0  0  0
    0.7145    1.2375    0.0000 C   0  0  0  0  0  0  0  0  0  0  0  0
    1.4289    0.8250    0.0000 C   0  0  0  0  0  0  0  0  0  0  0  0
    1.4289    0.0000    0.0000 C   0  0  0  0  0  0  0  0  0  0  0  0
    0.7145   -0.4125    0.0000 C   0  0  0  0  0  0  0  0  0  0  0  0
   -0.0000    0.0000    0.0000 C   0  0  0  0  0  0  0  0  0  0  0  0
   -0.7145   -0.4125    0.0000 N   0  0  0  0  0  0  0  0  0  0  0  0
   -0.7145   -1.2375    0.0000 C   0  0  0  0  0  0  0  0  0  0  0  0
   -0.7145   -2.0625    0.0000 O   0  0  0  0  0  0  0  0  0  0  0  0
   -0.0000    0.8250    0.0000 C   0  0  0  0  0  0  0  0  0  0  0  0
  1  2  1  0
  2  3  2  0
  3  4  1  0
  4  5  2  0
  5  6  1  0
  6  7  1  0
  7  8  2  0
  8  9  2  0
  6 10  2  0
  2 10  1  0
M  END
>  <name>  (474) 
1-isocyanato-3-methylbenzene

>  <Outcome>  (474) 
1

>  <SMILES>  (474) 
Cc1cccc(N=C=O)c1

$$$$

     RDKit          2D

 17 16  0  0  0  0  0  0  0  0999 V2000
    0.0000    0.0000    0.0000 C   0  0  0  0  0  0  0  0  0  0  0  0
    1.2990    0.7500    0.0000 C   0  0  0  0  0  0  0  0  0  0  0  0
    2.5981   -0.0000    0.0000 C   0  0  0  0  0  0  0  0  0  0  0  0
    3.8971    0.7500    0.0000 C   0  0  0  0  0  0  0  0  0  0  0  0
    5.1962   -0.0000    0.0000 O   0  0  0  0  0  0  0  0  0  0  0  0
    6.4952    0.7500    0.0000 P   0  0  0  0  0  0  0  0  0  0  0  0
    7.7942    1.5000    0.0000 O   0  0  0  0  0  0  0  0  0  0  0  0
    5.7452    2.0490    0.0000 O   0  0  0  0  0  0  0  0  0  0  0  0
    6.4952    3.3481    0.0000 C   0  0  0  0  0  0  0  0  0  0  0  0
    5.7452    4.6471    0.0000 C   0  0  0  0  0  0  0  0  0  0  0  0
    6.4952    5.9462    0.0000 C   0  0  0  0  0  0  0  0  0  0  0  0
    5.7452    7.2452    0.0000 C   0  0  0  0  0  0  0  0  0  0  0  0
    7.2452   -0.5490    0.0000 O   0  0  0  0  0  0  0  0  0  0  0  0
    8.7452   -0.5490    0.0000 C   0  0  0  0  0  0  0  0  0  0  0  0
    9.4952   -1.8481    0.0000 C   0  0  0  0  0  0  0  0  0  0  0  0
   10.9952   -1.8481    0.0000 C   0  0  0  0  0  0  0  0  0  0  0  0
   11.7452   -3.1471    0.0000 C   0  0  0  0  0  0  0  0  0  0  0  0
  1  2  1  0
  2  3  1  0
  3  4  1  0
  4  5  1  0
  5  6  1  0
  6  7  2  0
  6  8  1  0
  8  9  1  0
  9 10  1  0
 10 11  1  0
 11 12  1  0
  6 13  1  0
 13 14  1  0
 14 15  1  0
 15 16  1  0
 16 17  1  0
M  END
>  <name>  (475) 
tributyl phosphate

>  <Outcome>  (475) 
2

>  <SMILES>  (475) 
CCCCOP(=O)(OCCCC)OCCCC

$$$$

     RDKit          2D

  5  4  0  0  0  0  0  0  0  0999 V2000
    0.0000    0.0000    0.0000 C   0  0  0  0  0  0  0  0  0  0  0  0
    1.2990    0.7500    0.0000 C   0  0  0  0  0  0  0  0  0  0  0  0
    2.5981   -0.0000    0.0000 C   0  0  0  0  0  0  0  0  0  0  0  0
    1.2990    2.2500    0.0000 C   0  0  0  0  0  0  0  0  0  0  0  0
    2.5981    3.0000    0.0000 Cl  0  0  0  0  0  0  0  0  0  0  0  0
  1  2  1  0
  2  3  2  0
  2  4  1  0
  4  5  1  0
M  END
>  <name>  (476) 
3-chloro-2-methylprop-1-ene

>  <Outcome>  (476) 
2

>  <SMILES>  (476) 
C=C(C)CCl

$$$$

     RDKit          2D

  6  6  0  0  0  0  0  0  0  0999 V2000
    0.7145    1.2375    0.0000 C   0  0  0  0  0  0  0  0  0  0  0  0
    1.4289    0.8250    0.0000 O   0  0  0  0  0  0  0  0  0  0  0  0
    1.4289    0.0000    0.0000 C   0  0  0  0  0  0  0  0  0  0  0  0
    0.7145   -0.4125    0.0000 O   0  0  0  0  0  0  0  0  0  0  0  0
    0.0000    0.0000    0.0000 C   0  0  0  0  0  0  0  0  0  0  0  0
    0.0000    0.8250    0.0000 O   0  0  0  0  0  0  0  0  0  0  0  0
  1  2  1  0
  2  3  1  0
  3  4  1  0
  4  5  1  0
  5  6  1  0
  1  6  1  0
M  END
>  <name>  (477) 
1,3,5-trioxane

>  <Outcome>  (477) 
0

>  <SMILES>  (477) 
C1OCOCO1

$$$$

     RDKit          2D

 11 11  0  0  0  0  0  0  0  0999 V2000
    0.7557    2.1621    0.0000 C   0  0  0  0  0  0  0  0  0  0  0  0
    0.7557    1.3371    0.0000 C   0  0  0  0  0  0  0  0  0  0  0  0
    1.4701    0.9246    0.0000 C   0  0  0  0  0  0  0  0  0  0  0  0
    1.4701    0.0996    0.0000 C   0  0  0  0  0  0  0  0  0  0  0  0
    2.1846   -0.3129    0.0000 O   0  0  0  0  0  0  0  0  0  0  0  0
    0.7557   -0.3129    0.0000 C   0  0  0  0  0  0  0  0  0  0  0  0
    0.7557   -1.1379    0.0000 C   0  0  0  0  0  0  0  0  0  0  0  0
    0.0412    0.0996    0.0000 C   0  0  0  0  0  0  0  0  0  0  0  0
   -0.6733   -0.3129    0.0000 C   0  0  0  0  0  0  0  0  0  0  0  0
    0.0412    0.9246    0.0000 C   0  0  0  0  0  0  0  0  0  0  0  0
   -0.6733    1.3371    0.0000 O   0  0  0  0  0  0  0  0  0  0  0  0
  1  2  1  0
  2  3  2  0
  3  4  1  0
  4  5  1  0
  4  6  2  0
  6  7  1  0
  6  8  1  0
  8  9  1  0
  8 10  2  0
  2 10  1  0
 10 11  1  0
M  END
>  <name>  (478) 
2,3,5-trimethylbenzene-1,4-diol

>  <Outcome>  (478) 
1

>  <SMILES>  (478) 
Cc1cc(O)c(C)c(C)c1O

$$$$

     RDKit          2D

 18 18  0  0  0  0  0  0  0  0999 V2000
    3.7500   -1.2990    0.0000 C   0  0  0  0  0  0  0  0  0  0  0  0
    3.0000    0.0000    0.0000 C   0  0  0  0  0  0  0  0  0  0  0  0
    1.5000    0.0000    0.0000 C   0  0  0  0  0  0  0  0  0  0  0  0
    0.7500   -1.2990    0.0000 C   0  0  0  0  0  0  0  0  0  0  0  0
   -0.7500   -1.2990    0.0000 C   0  0  0  0  0  0  0  0  0  0  0  0
   -1.5000    0.0000    0.0000 C   0  0  0  0  0  0  0  0  0  0  0  0
   -0.7500    1.2990    0.0000 C   0  0  0  0  0  0  0  0  0  0  0  0
    0.7500    1.2990    0.0000 C   0  0  0  0  0  0  0  0  0  0  0  0
    1.5000    2.5981    0.0000 N   0  0  0  0  0  0  0  0  0  0  0  0
    3.0000    2.5981    0.0000 C   0  0  0  0  0  0  0  0  0  0  0  0
    3.7500    3.8971    0.0000 O   0  0  0  0  0  0  0  0  0  0  0  0
    5.2500    3.8971    0.0000 C   0  0  0  0  0  0  0  0  0  0  0  0
    6.0000    5.1962    0.0000 C   0  0  0  0  0  0  0  0  0  0  0  0
    0.7500    3.8971    0.0000 C   0  0  0  0  0  0  0  0  0  0  0  0
   -0.7500    3.8971    0.0000 O   0  0  0  0  0  0  0  0  0  0  0  0
    1.5000    5.1962    0.0000 C   0  0  0  0  0  0  0  0  0  0  0  0
    0.7500    6.4952    0.0000 Cl  0  0  0  0  0  0  0  0  0  0  0  0
   -1.5000    2.5981    0.0000 C   0  0  0  0  0  0  0  0  0  0  0  0
  1  2  1  0
  2  3  1  0
  3  4  2  0
  4  5  1  0
  5  6  2  0
  6  7  1  0
  7  8  2  0
  8  9  1  0
  9 10  1  0
 10 11  1  0
 11 12  1  0
 12 13  1  0
  9 14  1  0
 14 15  2  0
 14 16  1  0
 16 17  1  0
  7 18  1  0
  8  3  1  0
M  END
>  <name>  (479) 
2-chloro-N-(ethoxymethyl)-N-(2-ethyl-6-methylphenyl)acetamide

>  <Outcome>  (479) 
2

>  <SMILES>  (479) 
CCOCN(C(=O)CCl)c1c(C)cccc1CC

$$$$

     RDKit          2D

 18 17  0  0  0  0  0  0  0  0999 V2000
    0.0000    0.0000    0.0000 C   0  0  0  0  0  0  0  0  0  0  0  0
    1.2990    0.7500    0.0000 C   0  0  0  0  0  0  0  0  0  0  0  0
    2.5981   -0.0000    0.0000 C   0  0  0  0  0  0  0  0  0  0  0  0
    3.8971    0.7500    0.0000 C   0  0  0  0  0  0  0  0  0  0  0  0
    5.1962   -0.0000    0.0000 C   0  0  0  0  0  0  0  0  0  0  0  0
    6.4952    0.7500    0.0000 C   0  0  0  0  0  0  0  0  0  0  0  0
    7.7942   -0.0000    0.0000 C   0  0  0  0  0  0  0  0  0  0  0  0
    9.0933    0.7500    0.0000 C   0  0  0  0  0  0  0  0  0  0  0  0
   10.3923   -0.0000    0.0000 C   0  0  0  0  0  0  0  0  0  0  0  0
   11.6913    0.7500    0.0000 C   0  0  0  0  0  0  0  0  0  0  0  0
   12.9904   -0.0000    0.0000 C   0  0  0  0  0  0  0  0  0  0  0  0
   14.2894    0.7500    0.0000 C   0  0  0  0  0  0  0  0  0  0  0  0
   15.5885   -0.0000    0.0000 C   0  0  0  0  0  0  0  0  0  0  0  0
   16.8875    0.7500    0.0000 C   0  0  0  0  0  0  0  0  0  0  0  0
   18.1865   -0.0000    0.0000 C   0  0  0  0  0  0  0  0  0  0  0  0
   19.4856    0.7500    0.0000 C   0  0  0  0  0  0  0  0  0  0  0  0
   20.7846   -0.0000    0.0000 O   0  0  0  0  0  0  0  0  0  0  0  0
   19.4856    2.2500    0.0000 Cl  0  0  0  0  0  0  0  0  0  0  0  0
  1  2  1  0
  2  3  1  0
  3  4  1  0
  4  5  1  0
  5  6  1  0
  6  7  1  0
  7  8  1  0
  8  9  1  0
  9 10  1  0
 10 11  1  0
 11 12  1  0
 12 13  1  0
 13 14  1  0
 14 15  1  0
 15 16  1  0
 16 17  2  0
 16 18  1  0
M  END
>  <name>  (480) 
hexadecanoyl chloride

>  <Outcome>  (480) 
2

>  <SMILES>  (480) 
CCCCCCCCCCCCCCCC(=O)Cl

$$$$

     RDKit          2D

  7  6  0  0  0  0  0  0  0  0999 V2000
    0.0000    0.0000    0.0000 C   0  0  0  0  0  0  0  0  0  0  0  0
    1.2990    0.7500    0.0000 C   0  0  0  0  0  0  0  0  0  0  0  0
    2.5981   -0.0000    0.0000 N   0  0  0  0  0  0  0  0  0  0  0  0
    3.8971    0.7500    0.0000 C   0  0  0  0  0  0  0  0  0  0  0  0
    5.1962   -0.0000    0.0000 C   0  0  0  0  0  0  0  0  0  0  0  0
    2.5981   -1.5000    0.0000 N   0  0  0  0  0  0  0  0  0  0  0  0
    3.8971   -2.2500    0.0000 O   0  0  0  0  0  0  0  0  0  0  0  0
  1  2  1  0
  2  3  1  0
  3  4  1  0
  4  5  1  0
  3  6  1  0
  6  7  2  0
M  END
>  <name>  (481) 
N,N-diethylnitrous amide

>  <Outcome>  (481) 
2

>  <SMILES>  (481) 
CCN(CC)N=O

$$$$

     RDKit          2D

  9  8  0  0  0  0  0  0  0  0999 V2000
    0.0000    0.0000    0.0000 C   0  0  0  0  0  0  0  0  0  0  0  0
    1.2990    0.7500    0.0000 C   0  0  0  0  0  0  0  0  0  0  0  0
    2.5981   -0.0000    0.0000 C   0  0  0  0  0  0  0  0  0  0  0  0
    3.8971    0.7500    0.0000 C   0  0  0  0  0  0  0  0  0  0  0  0
    5.1962   -0.0000    0.0000 C   0  0  0  0  0  0  0  0  0  0  0  0
    6.4952    0.7500    0.0000 C   0  0  0  0  0  0  0  0  0  0  0  0
    7.7942   -0.0000    0.0000 C   0  0  0  0  0  0  0  0  0  0  0  0
    5.1962   -1.5000    0.0000 C   0  0  0  0  0  0  0  0  0  0  0  0
    6.4952   -2.2500    0.0000 N   0  0  0  0  0  0  0  0  0  0  0  0
  1  2  1  0
  2  3  1  0
  3  4  1  0
  4  5  1  0
  5  6  1  0
  6  7  1  0
  5  8  1  0
  8  9  1  0
M  END
>  <name>  (482) 
2-ethylhexan-1-amine

>  <Outcome>  (482) 
2

>  <SMILES>  (482) 
CCCCC(CC)CN

$$$$

     RDKit          2D

  6  5  0  0  0  0  0  0  0  0999 V2000
    1.7690   -1.6112    0.0000 C   0  0  0  0  0  0  0  0  0  0  0  0
    1.3565   -0.8967    0.0000 C   0  0  0  0  0  0  0  0  0  0  0  0
    2.0710   -0.4842    0.0000 C   0  0  0  0  0  0  0  0  0  0  0  0
    0.6421   -1.3092    0.0000 C   0  0  0  0  0  0  0  0  0  0  0  0
    0.9440   -0.1823    0.0000 O   0  0  0  0  0  0  0  0  0  0  0  0
    0.1190   -0.1823    0.0000 O   0  0  0  0  0  0  0  0  0  0  0  0
  1  2  1  0
  2  3  1  0
  2  4  1  0
  2  5  1  0
  5  6  1  0
M  END
>  <name>  (483) 
tert-butyl hydroperoxide

>  <Outcome>  (483) 
1

>  <SMILES>  (483) 
CC(C)(C)OO

$$$$

     RDKit          2D

  9  4  0  0  0  0  0  0  0  0999 V2000
    0.0000    0.0000    0.0000 O   0  0  0  0  0  0  0  0  0  0  0  0
    1.0000    0.0000    0.0000 O   0  0  0  0  0  0  0  0  0  0  0  0
    0.0000    1.5490    0.0000 O   0  0  0  0  0  1  0  0  0  0  0  0
    1.2990    2.2990    0.0000 W   0  0  0  0  0  6  0  0  0  0  0  0
    2.0490    1.0000    0.0000 O   0  0  0  0  0  0  0  0  0  0  0  0
    0.5490    3.5981    0.0000 O   0  0  0  0  0  0  0  0  0  0  0  0
    2.5981    3.0490    0.0000 O   0  0  0  0  0  1  0  0  0  0  0  0
    2.0000    0.0000    0.0000 Na  0  0  0  0  0 15  0  0  0  0  0  0
    3.0000    0.0000    0.0000 Na  0  0  0  0  0 15  0  0  0  0  0  0
  3  4  1  0
  4  5  2  0
  4  6  2  0
  4  7  1  0
M  CHG  4   3  -1   7  -1   8   1   9   1
M  END
>  <name>  (484) 
disodium;dioxido(dioxo)tungsten;dihydrate

>  <Outcome>  (484) 
2

>  <SMILES>  (484) 
O.O.O=[W](=O)([O-])[O-].[Na+].[Na+]

$$$$

     RDKit          2D

 18 17  0  0  0  0  0  0  0  0999 V2000
    7.2336    5.0019    0.0000 C   0  0  0  0  0  0  0  0  0  0  0  0
    7.9480    5.4144    0.0000 C   0  0  0  0  0  0  0  0  0  0  0  0
    8.6625    5.0019    0.0000 C   0  0  0  0  0  0  0  0  0  0  0  0
    9.3770    5.4144    0.0000 C   0  0  0  0  0  0  0  0  0  0  0  0
   10.0914    5.0019    0.0000 C   0  0  0  0  0  0  0  0  0  0  0  0
   10.8059    5.4144    0.0000 C   0  0  0  0  0  0  0  0  0  0  0  0
   11.5204    5.0019    0.0000 C   0  0  0  0  0  0  0  0  0  0  0  0
   12.2349    5.4144    0.0000 C   0  0  0  0  0  0  0  0  0  0  0  0
   12.9493    5.0019    0.0000 C   0  0  0  0  0  0  0  0  0  0  0  0
   13.6638    5.4144    0.0000 C   0  0  0  0  0  0  0  0  0  0  0  0
   14.3783    5.0019    0.0000 C   0  0  0  0  0  0  0  0  0  0  0  0
   15.0927    5.4144    0.0000 C   0  0  0  0  0  0  0  0  0  0  0  0
   15.8072    5.0019    0.0000 C   0  0  0  0  0  0  0  0  0  0  0  0
   16.5217    5.4144    0.0000 C   0  0  0  0  0  0  0  0  0  0  0  0
   17.2362    5.0019    0.0000 C   0  0  0  0  0  0  0  0  0  0  0  0
   17.9506    5.4144    0.0000 C   0  0  0  0  0  0  0  0  0  0  0  0
   18.6651    5.0019    0.0000 C   0  0  0  0  0  0  0  0  0  0  0  0
   19.3796    5.4144    0.0000 C   0  0  0  0  0  0  0  0  0  0  0  0
  1  2  2  0
  2  3  1  0
  3  4  1  0
  4  5  1  0
  5  6  1  0
  6  7  1  0
  7  8  1  0
  8  9  1  0
  9 10  1  0
 10 11  1  0
 11 12  1  0
 12 13  1  0
 13 14  1  0
 14 15  1  0
 15 16  1  0
 16 17  1  0
 17 18  1  0
M  END
>  <name>  (485) 
octadec-1-ene

>  <Outcome>  (485) 
0

>  <SMILES>  (485) 
C=CCCCCCCCCCCCCCCCC

$$$$

     RDKit          2D

  9  8  0  0  0  0  0  0  0  0999 V2000
    2.9980    2.5541    0.0000 Cl  0  0  0  0  0  0  0  0  0  0  0  0
    3.7125    2.1416    0.0000 C   0  0  0  0  0  0  0  0  0  0  0  0
    4.4270    2.5541    0.0000 C   0  0  0  0  0  0  0  0  0  0  0  0
    5.1414    2.1416    0.0000 O   0  0  0  0  0  0  0  0  0  0  0  0
    5.8559    2.5541    0.0000 C   0  0  0  0  0  0  0  0  0  0  0  0
    6.5704    2.1416    0.0000 O   0  0  0  0  0  0  0  0  0  0  0  0
    7.2849    2.5541    0.0000 C   0  0  0  0  0  0  0  0  0  0  0  0
    7.9993    2.1416    0.0000 C   0  0  0  0  0  0  0  0  0  0  0  0
    8.7138    2.5541    0.0000 Cl  0  0  0  0  0  0  0  0  0  0  0  0
  1  2  1  0
  2  3  1  0
  3  4  1  0
  4  5  1  0
  5  6  1  0
  6  7  1  0
  7  8  1  0
  8  9  1  0
M  END
>  <name>  (486) 
1-chloro-2-[(2-chloroethoxy)methoxy]ethane

>  <Outcome>  (486) 
1

>  <SMILES>  (486) 
ClCCOCOCCCl

$$$$

     RDKit          2D

  4  3  0  0  0  0  0  0  0  0999 V2000
    0.9073   -1.9366    0.0000 O   0  0  0  0  0  0  0  0  0  0  0  0
    0.4948   -1.2221    0.0000 C   0  0  0  0  0  0  0  0  0  0  0  0
   -0.3302   -1.2221    0.0000 C   0  0  0  0  0  0  0  0  0  0  0  0
   -1.1552   -1.2221    0.0000 C   0  0  0  0  0  0  0  0  0  0  0  0
  1  2  1  0
  2  3  1  0
  3  4  3  0
M  END
>  <name>  (487) 
Propargyl alcohol

>  <Outcome>  (487) 
1

>  <SMILES>  (487) 
C#CCO

$$$$

     RDKit          2D

  6  6  0  0  0  0  0  0  0  0999 V2000
    1.4660    0.3982    0.0000 C   0  0  0  0  0  0  0  0  0  0  0  0
    0.6814    0.1432    0.0000 N   0  0  0  0  0  0  0  0  0  0  0  0
    0.0140    0.6281    0.0000 C   0  0  0  0  0  0  0  0  0  0  0  0
   -0.6535    0.1432    0.0000 C   0  0  0  0  0  0  0  0  0  0  0  0
   -0.3985   -0.6414    0.0000 C   0  0  0  0  0  0  0  0  0  0  0  0
    0.4265   -0.6414    0.0000 C   0  0  0  0  0  0  0  0  0  0  0  0
  1  2  1  0
  3  2  1  0
  4  3  1  0
  5  4  1  0
  6  5  1  0
  2  6  1  0
M  END
>  <name>  (488) 
N-Methylpyrrolidine

>  <Outcome>  (488) 
1

>  <SMILES>  (488) 
CN1CCCC1

$$$$

     RDKit          2D

  8  7  0  0  0  0  0  0  0  0999 V2000
    2.8027    0.6684    0.0000 C   0  0  0  0  0  0  0  0  0  0  0  0
    2.0883    0.2559    0.0000 O   0  0  0  0  0  0  0  0  0  0  0  0
    1.3738    0.6684    0.0000 Si  0  0  0  0  0  4  0  0  0  0  0  0
    1.7863    1.3828    0.0000 C   0  0  0  0  0  0  0  0  0  0  0  0
    0.6593    1.0809    0.0000 O   0  0  0  0  0  0  0  0  0  0  0  0
   -0.0551    0.6684    0.0000 C   0  0  0  0  0  0  0  0  0  0  0  0
    0.9613   -0.0461    0.0000 O   0  0  0  0  0  0  0  0  0  0  0  0
    0.1363   -0.0461    0.0000 C   0  0  0  0  0  0  0  0  0  0  0  0
  1  2  1  0
  2  3  1  0
  3  4  1  0
  3  5  1  0
  5  6  1  0
  3  7  1  0
  7  8  1  0
M  END
>  <name>  (489) 
trimethoxy(methyl)silane

>  <Outcome>  (489) 
0

>  <SMILES>  (489) 
CO[Si](C)(OC)OC

$$$$

     RDKit          2D

  9  8  0  0  0  0  0  0  0  0999 V2000
    1.0723    1.4041    0.0000 O   0  0  0  0  0  0  0  0  0  0  0  0
    1.7868    1.8166    0.0000 C   0  0  0  0  0  0  0  0  0  0  0  0
    2.5013    1.4041    0.0000 C   0  0  0  0  0  0  0  0  0  0  0  0
    3.2157    1.8166    0.0000 C   0  0  0  0  0  0  0  0  0  0  0  0
    3.9302    1.4041    0.0000 C   0  0  0  0  0  0  0  0  0  0  0  0
    4.6447    1.8166    0.0000 C   0  0  0  0  0  0  0  0  0  0  0  0
    4.6447    2.6416    0.0000 O   0  0  0  0  0  0  0  0  0  0  0  0
    5.3591    1.4041    0.0000 C   0  0  0  0  0  0  0  0  0  0  0  0
    6.0736    1.8166    0.0000 O   0  0  0  0  0  0  0  0  0  0  0  0
  1  2  1  0
  2  3  1  0
  3  4  1  0
  4  5  1  0
  5  6  1  0
  6  7  1  0
  6  8  1  0
  8  9  1  0
M  END
>  <name>  (490) 
hexane-1,2,6-triol

>  <Outcome>  (490) 
0

>  <SMILES>  (490) 
OCCCCC(O)CO

$$$$

     RDKit          2D

  9  8  0  0  0  0  0  0  0  0999 V2000
    1.0461    1.4289    0.0000 C   0  0  0  0  0  0  0  0  0  0  0  0
    1.7605    1.8414    0.0000 C   0  0  0  0  0  0  0  0  0  0  0  0
    2.4750    1.4289    0.0000 C   0  0  0  0  0  0  0  0  0  0  0  0
    2.4750    0.6039    0.0000 O   0  0  0  0  0  0  0  0  0  0  0  0
    3.1895    1.8414    0.0000 O   0  0  0  0  0  0  0  0  0  0  0  0
    3.9039    1.4289    0.0000 C   0  0  0  0  0  0  0  0  0  0  0  0
    4.6184    1.8414    0.0000 C   0  0  0  0  0  0  0  0  0  0  0  0
    5.3329    1.4289    0.0000 O   0  0  0  0  0  0  0  0  0  0  0  0
    6.0474    1.8414    0.0000 C   0  0  0  0  0  0  0  0  0  0  0  0
  1  2  2  0
  2  3  1  0
  3  4  2  0
  3  5  1  0
  5  6  1  0
  6  7  1  0
  7  8  1  0
  8  9  1  0
M  END
>  <name>  (491) 
2-methoxyethyl prop-2-enoate

>  <Outcome>  (491) 
1

>  <SMILES>  (491) 
C=CC(=O)OCCOC

$$$$

     RDKit          2D

 11 11  0  0  0  0  0  0  0  0999 V2000
   -0.7656    3.7443    0.0000 C   0  0  0  0  0  0  0  0  0  0  0  0
   -0.0511    3.3318    0.0000 C   0  0  0  0  0  0  0  0  0  0  0  0
    0.6634    3.7443    0.0000 N   0  0  0  0  0  0  0  0  0  0  0  0
   -0.0511    2.5068    0.0000 C   0  0  0  0  0  0  0  0  0  0  0  0
    0.6634    2.0943    0.0000 C   0  0  0  0  0  0  0  0  0  0  0  0
    0.6634    1.2693    0.0000 C   0  0  0  0  0  0  0  0  0  0  0  0
    1.3779    0.8568    0.0000 C   0  0  0  0  0  0  0  0  0  0  0  0
    1.3779    0.0318    0.0000 C   0  0  0  0  0  0  0  0  0  0  0  0
    0.6634   -0.3807    0.0000 C   0  0  0  0  0  0  0  0  0  0  0  0
   -0.0511    0.0318    0.0000 C   0  0  0  0  0  0  0  0  0  0  0  0
   -0.0511    0.8568    0.0000 C   0  0  0  0  0  0  0  0  0  0  0  0
  1  2  1  0
  2  3  1  0
  2  4  1  0
  4  5  1  0
  5  6  1  0
  6  7  2  0
  7  8  1  0
  8  9  2  0
  9 10  1  0
 10 11  2  0
  6 11  1  0
M  END
>  <name>  (492) 
4-phenylbutan-2-amine

>  <Outcome>  (492) 
0

>  <SMILES>  (492) 
CC(N)CCc1ccccc1

$$$$

     RDKit          2D

  9  9  0  0  0  0  0  0  0  0999 V2000
    0.7145    2.0625    0.0000 Cl  0  0  0  0  0  0  0  0  0  0  0  0
    0.7145    1.2375    0.0000 C   0  0  0  0  0  0  0  0  0  0  0  0
    1.4289    0.8250    0.0000 N   0  0  0  0  0  0  0  0  0  0  0  0
    1.4289   -0.0000    0.0000 C   0  0  0  0  0  0  0  0  0  0  0  0
    2.1434   -0.4125    0.0000 Cl  0  0  0  0  0  0  0  0  0  0  0  0
    0.7145   -0.4125    0.0000 N   0  0  0  0  0  0  0  0  0  0  0  0
   -0.0000    0.0000    0.0000 C   0  0  0  0  0  0  0  0  0  0  0  0
   -0.7145   -0.4125    0.0000 Cl  0  0  0  0  0  0  0  0  0  0  0  0
   -0.0000    0.8250    0.0000 N   0  0  0  0  0  0  0  0  0  0  0  0
  1  2  1  0
  2  3  2  0
  3  4  1  0
  4  5  1  0
  4  6  2  0
  6  7  1  0
  7  8  1  0
  7  9  2  0
  2  9  1  0
M  END
>  <name>  (493) 
trichloro-1,3,5-triazine

>  <Outcome>  (493) 
1

>  <SMILES>  (493) 
Clc1nc(Cl)nc(Cl)n1

$$$$

     RDKit          2D

  8  8  0  0  0  0  0  0  0  0999 V2000
    2.7760    0.0000    0.0000 C   0  0  0  0  0  0  0  0  0  0  0  0
    1.2760    0.0000    0.0000 N   0  0  0  0  0  0  0  0  0  0  0  0
    0.3943    1.2135    0.0000 C   0  0  0  0  0  0  0  0  0  0  0  0
    0.8578    2.6401    0.0000 O   0  0  0  0  0  0  0  0  0  0  0  0
   -1.0323    0.7500    0.0000 C   0  0  0  0  0  0  0  0  0  0  0  0
   -1.0323   -0.7500    0.0000 C   0  0  0  0  0  0  0  0  0  0  0  0
    0.3943   -1.2135    0.0000 S   0  0  0  0  0  0  0  0  0  0  0  0
   -2.2458   -1.6317    0.0000 Cl  0  0  0  0  0  0  0  0  0  0  0  0
  1  2  1  0
  2  3  1  0
  3  4  2  0
  3  5  1  0
  5  6  2  0
  6  7  1  0
  6  8  1  0
  7  2  1  0
M  END
>  <name>  (494) 
5-chloro-2-methyl-1,2-thiazol-3-one

>  <Outcome>  (494) 
2

>  <SMILES>  (494) 
Cn1sc(Cl)cc1=O

$$$$

     RDKit          2D

 16 15  0  0  0  0  0  0  0  0999 V2000
    4.7500    0.0000    0.0000 C   0  0  0  0  0  0  0  0  0  0  0  0
    6.0490    0.7500    0.0000 N   0  0  0  0  0  0  0  0  0  0  0  0
    7.3481   -0.0000    0.0000 C   0  0  0  0  0  0  0  0  0  0  0  0
    3.7500   -1.2990    0.0000 C   0  0  0  0  0  0  0  0  0  0  0  0
    3.0000    0.0000    0.0000 O   0  0  0  0  0  0  0  0  0  0  0  0
    1.5000    0.0000    0.0000 C   0  0  0  0  0  0  0  0  0  0  0  0
    0.7500   -1.2990    0.0000 C   0  0  0  0  0  0  0  0  0  0  0  0
   -0.7500   -1.2990    0.0000 C   0  0  0  0  0  0  0  0  0  0  0  0
   -1.5000    0.0000    0.0000 C   0  0  0  0  0  0  0  0  0  0  0  0
   -0.7500    1.2990    0.0000 C   0  0  0  0  0  0  0  0  0  0  0  0
    0.7500    1.2990    0.0000 C   0  0  0  0  0  0  0  0  0  0  0  0
    1.5000    2.5981    0.0000 C   0  0  0  0  0  0  0  0  0  0  0  0
    0.7500    3.8971    0.0000 O   0  0  0  0  0  0  0  0  0  0  0  0
    3.0000    2.5981    0.0000 O   0  0  0  0  0  0  0  0  0  0  0  0
   -1.5000    2.5981    0.0000 Cl  0  0  0  0  0  0  0  0  0  0  0  0
    1.5000   -2.5981    0.0000 Cl  0  0  0  0  0  0  0  0  0  0  0  0
  1  2  1  0
  2  3  1  0
  4  5  1  0
  5  6  1  0
  6  7  2  0
  7  8  1  0
  8  9  2  0
  9 10  1  0
 10 11  2  0
 11 12  1  0
 12 13  2  0
 12 14  1  0
 10 15  1  0
  7 16  1  0
 11  6  1  0
M  END
>  <name>  (495) 
3,6-dichloro-2-methoxybenzoic acid;N-methylmethanamine

>  <Outcome>  (495) 
2

>  <SMILES>  (495) 
CNC.COc1c(Cl)ccc(Cl)c1C(=O)O

$$$$

     RDKit          2D

 14 13  0  0  0  0  0  0  0  0999 V2000
    0.0000    0.0000    0.0000 C   0  0  0  0  0  0  0  0  0  0  0  0
    1.2990    0.7500    0.0000 C   0  0  0  0  0  0  0  0  0  0  0  0
    2.5981   -0.0000    0.0000 O   0  0  0  0  0  0  0  0  0  0  0  0
    3.8971    0.7500    0.0000 P   0  0  0  0  0  0  0  0  0  0  0  0
    4.6471   -0.5490    0.0000 S   0  0  0  0  0  0  0  0  0  0  0  0
    5.1962    1.5000    0.0000 O   0  0  0  0  0  0  0  0  0  0  0  0
    5.1962    3.0000    0.0000 C   0  0  0  0  0  0  0  0  0  0  0  0
    6.4952    3.7500    0.0000 C   0  0  0  0  0  0  0  0  0  0  0  0
    3.1471    2.0490    0.0000 S   0  0  0  0  0  0  0  0  0  0  0  0
    3.8971    3.3481    0.0000 C   0  0  0  0  0  0  0  0  0  0  0  0
    3.1471    4.6471    0.0000 C   0  0  0  0  0  0  0  0  0  0  0  0
    3.8971    5.9462    0.0000 S   0  0  0  0  0  0  0  0  0  0  0  0
    3.1471    7.2452    0.0000 C   0  0  0  0  0  0  0  0  0  0  0  0
    3.8971    8.5442    0.0000 C   0  0  0  0  0  0  0  0  0  0  0  0
  1  2  1  0
  2  3  1  0
  3  4  1  0
  4  5  2  0
  4  6  1  0
  6  7  1  0
  7  8  1  0
  4  9  1  0
  9 10  1  0
 10 11  1  0
 11 12  1  0
 12 13  1  0
 13 14  1  0
M  END
>  <name>  (496) 
diethoxy-(2-ethylsulfanylethylsulfanyl)-sulfanylidene-lambda5-phosphane

>  <Outcome>  (496) 
2

>  <SMILES>  (496) 
CCOP(=S)(OCC)SCCSCC

$$$$

     RDKit          2D

 12 11  0  0  0  0  0  0  0  0999 V2000
    1.0461    1.4289    0.0000 C   0  0  0  0  0  0  0  0  0  0  0  0
    1.7605    1.8414    0.0000 N   0  0  0  0  0  0  0  0  0  0  0  0
    1.7605    2.6664    0.0000 C   0  0  0  0  0  0  0  0  0  0  0  0
    2.4750    1.4289    0.0000 C   0  0  0  0  0  0  0  0  0  0  0  0
    2.4750    0.6039    0.0000 S   0  0  0  0  0  0  0  0  0  0  0  0
    3.1895    1.8414    0.0000 S   0  0  0  0  0  0  0  0  0  0  0  0
    3.9040    1.4289    0.0000 S   0  0  0  0  0  0  0  0  0  0  0  0
    4.6184    1.8414    0.0000 C   0  0  0  0  0  0  0  0  0  0  0  0
    4.6184    2.6664    0.0000 S   0  0  0  0  0  0  0  0  0  0  0  0
    5.3329    1.4289    0.0000 N   0  0  0  0  0  0  0  0  0  0  0  0
    6.0474    1.8414    0.0000 C   0  0  0  0  0  0  0  0  0  0  0  0
    5.3329    0.6039    0.0000 C   0  0  0  0  0  0  0  0  0  0  0  0
  1  2  1  0
  2  3  1  0
  2  4  1  0
  4  5  2  0
  4  6  1  0
  6  7  1  0
  7  8  1  0
  8  9  2  0
  8 10  1  0
 10 11  1  0
 10 12  1  0
M  END
>  <name>  (497) 
[disulfanediylbis(carbonothioylnitrilo)]tetramethane

>  <Outcome>  (497) 
1

>  <SMILES>  (497) 
CN(C)C(=S)SSC(=S)N(C)C

$$$$

     RDKit          2D

  3  2  0  0  0  0  0  0  0  0999 V2000
    0.5635   -0.1510    0.0000 N   0  0  0  0  0  0  0  0  0  0  0  0
    0.1510    0.5635    0.0000 C   0  0  0  0  0  0  0  0  0  0  0  0
   -0.6740    0.5635    0.0000 O   0  0  0  0  0  0  0  0  0  0  0  0
  1  2  1  0
  2  3  2  0
M  END
>  <name>  (498) 
Formamide

>  <Outcome>  (498) 
0

>  <SMILES>  (498) 
NC=O

$$$$

     RDKit          2D

 12 12  0  0  0  0  0  0  0  0999 V2000
   -0.0000    2.4750    0.0000 O   0  0  0  0  0  0  0  0  0  0  0  0
    0.7145    2.0625    0.0000 C   0  0  0  0  0  0  0  0  0  0  0  0
    1.4289    2.4750    0.0000 O   0  0  0  0  0  0  0  0  0  0  0  0
    0.7145    1.2375    0.0000 C   0  0  0  0  0  0  0  0  0  0  0  0
    1.4289    0.8250    0.0000 C   0  0  0  0  0  0  0  0  0  0  0  0
    1.4289   -0.0000    0.0000 C   0  0  0  0  0  0  0  0  0  0  0  0
    0.7145   -0.4125    0.0000 C   0  0  0  0  0  0  0  0  0  0  0  0
   -0.0000   -0.0000    0.0000 C   0  0  0  0  0  0  0  0  0  0  0  0
   -0.0000    0.8250    0.0000 C   0  0  0  0  0  0  0  0  0  0  0  0
   -0.7145    1.2375    0.0000 C   0  0  0  0  0  0  0  0  0  0  0  0
   -0.7145    2.0625    0.0000 O   0  0  0  0  0  0  0  0  0  0  0  0
   -1.4289    0.8250    0.0000 O   0  0  0  0  0  0  0  0  0  0  0  0
  1  2  2  0
  2  3  1  0
  2  4  1  0
  4  5  2  0
  5  6  1  0
  6  7  2  0
  7  8  1  0
  8  9  2  0
  4  9  1  0
  9 10  1  0
 10 11  2  0
 10 12  1  0
M  END
>  <name>  (499) 
benzene-1,2-dicarboxylic acid

>  <Outcome>  (499) 
0

>  <SMILES>  (499) 
O=C(O)c1ccccc1C(=O)O

$$$$

     RDKit          2D

 23 22  0  0  0  0  0  0  0  0999 V2000
   -0.0003    0.5275    0.0000 C   0  0  0  0  0  0  0  0  0  0  0  0
    0.7142    0.1150    0.0000 C   0  0  0  0  0  0  0  0  0  0  0  0
    1.4287    0.5275    0.0000 C   0  0  0  0  0  0  0  0  0  0  0  0
    2.1432    0.1150    0.0000 C   0  0  0  0  0  0  0  0  0  0  0  0
    2.8576    0.5275    0.0000 O   0  0  0  0  0  0  0  0  0  0  0  0
    3.5721    0.1150    0.0000 C   0  0  0  0  0  0  0  0  0  0  0  0
    4.2866    0.5275    0.0000 C   0  0  0  0  0  0  0  0  0  0  0  0
    5.0010    0.1150    0.0000 O   0  0  0  0  0  0  0  0  0  0  0  0
    5.7155    0.5275    0.0000 C   0  0  0  0  0  0  0  0  0  0  0  0
    6.4300    0.1150    0.0000 C   0  0  0  0  0  0  0  0  0  0  0  0
    7.1444    0.5275    0.0000 O   0  0  0  0  0  0  0  0  0  0  0  0
    7.8589    0.1150    0.0000 C   0  0  0  0  0  0  0  0  0  0  0  0
    8.5734    0.5275    0.0000 O   0  0  0  0  0  0  0  0  0  0  0  0
    9.2879    0.1150    0.0000 C   0  0  0  0  0  0  0  0  0  0  0  0
   10.0023    0.5275    0.0000 C   0  0  0  0  0  0  0  0  0  0  0  0
   10.7168    0.1150    0.0000 O   0  0  0  0  0  0  0  0  0  0  0  0
   11.4313    0.5275    0.0000 C   0  0  0  0  0  0  0  0  0  0  0  0
   12.1457    0.1150    0.0000 C   0  0  0  0  0  0  0  0  0  0  0  0
   12.8602    0.5275    0.0000 O   0  0  0  0  0  0  0  0  0  0  0  0
   13.5747    0.1150    0.0000 C   0  0  0  0  0  0  0  0  0  0  0  0
   14.2892    0.5275    0.0000 C   0  0  0  0  0  0  0  0  0  0  0  0
   15.0036    0.1150    0.0000 C   0  0  0  0  0  0  0  0  0  0  0  0
   15.7181    0.5275    0.0000 C   0  0  0  0  0  0  0  0  0  0  0  0
  1  2  1  0
  2  3  1  0
  3  4  1  0
  4  5  1  0
  5  6  1  0
  6  7  1  0
  7  8  1  0
  8  9  1  0
  9 10  1  0
 10 11  1  0
 11 12  1  0
 12 13  1  0
 13 14  1  0
 14 15  1  0
 15 16  1  0
 16 17  1  0
 17 18  1  0
 18 19  1  0
 19 20  1  0
 20 21  1  0
 21 22  1  0
 22 23  1  0
M  END
>  <name>  (500) 
Bis(butoxyethoxyethoxy)methane

>  <Outcome>  (500) 
0

>  <SMILES>  (500) 
CCCCOCCOCCOCOCCOCCOCCCC

$$$$

     RDKit          2D

 13  9  0  0  0  0  0  0  0  0999 V2000
    0.0000    0.0000    0.0000 C   0  0  0  0  0  0  0  0  0  0  0  0
    1.2990    0.7500    0.0000 C   0  0  0  0  0  0  0  0  0  0  0  0
    1.2990    2.2500    0.0000 O   0  0  0  0  0  0  0  0  0  0  0  0
    2.5981   -0.0000    0.0000 O   0  0  0  0  0  1  0  0  0  0  0  0
    0.0000    3.2500    0.0000 C   0  0  0  0  0  0  0  0  0  0  0  0
    1.2990    4.0000    0.0000 C   0  0  0  0  0  0  0  0  0  0  0  0
    1.2990    5.5000    0.0000 O   0  0  0  0  0  0  0  0  0  0  0  0
    2.5981    3.2500    0.0000 O   0  0  0  0  0  1  0  0  0  0  0  0
    3.5981    0.0000    0.0000 C   0  0  0  0  0  0  0  0  0  0  0  0
    4.8971    0.7500    0.0000 C   0  0  0  0  0  0  0  0  0  0  0  0
    4.8971    2.2500    0.0000 O   0  0  0  0  0  0  0  0  0  0  0  0
    6.1962   -0.0000    0.0000 O   0  0  0  0  0  1  0  0  0  0  0  0
    0.0000    6.5000    0.0000 Cr  0  0  0  0  0 15  0  0  0  0  0  0
  1  2  1  0
  2  3  2  0
  2  4  1  0
  5  6  1  0
  6  7  2  0
  6  8  1  0
  9 10  1  0
 10 11  2  0
 10 12  1  0
M  CHG  4   4  -1   8  -1  12  -1  13   3
M  END
>  <name>  (501) 
chromium(3+);triacetate

>  <Outcome>  (501) 
2

>  <SMILES>  (501) 
CC(=O)[O-].CC(=O)[O-].CC(=O)[O-].[Cr+3]

$$$$

     RDKit          2D

 11 10  0  0  0  0  0  0  0  0999 V2000
    2.2836    2.9714    0.0000 C   0  0  0  0  0  0  0  0  0  0  0  0
    2.9980    2.5589    0.0000 C   0  0  0  0  0  0  0  0  0  0  0  0
    3.7125    2.1464    0.0000 C   0  0  0  0  0  0  0  0  0  0  0  0
    4.4270    2.5589    0.0000 O   0  0  0  0  0  0  0  0  0  0  0  0
    5.1414    2.1464    0.0000 C   0  0  0  0  0  0  0  0  0  0  0  0
    5.1414    1.3214    0.0000 O   0  0  0  0  0  0  0  0  0  0  0  0
    5.8559    2.5589    0.0000 N   0  0  0  0  0  0  0  0  0  0  0  0
    6.5704    2.1464    0.0000 C   0  0  0  0  0  0  0  0  0  0  0  0
    7.2849    2.5589    0.0000 C   0  0  0  0  0  0  0  0  0  0  0  0
    7.9993    2.1464    0.0000 C   0  0  0  0  0  0  0  0  0  0  0  0
    8.7138    2.5589    0.0000 C   0  0  0  0  0  0  0  0  0  0  0  0
  1  2  3  0
  2  3  1  0
  3  4  1  0
  4  5  1  0
  5  6  2  0
  5  7  1  0
  7  8  1  0
  8  9  1  0
  9 10  1  0
 10 11  1  0
M  END
>  <name>  (502) 
unnamed [76114-73-3]

>  <Outcome>  (502) 
1

>  <SMILES>  (502) 
C#CCOC(=O)NCCCC

$$$$

     RDKit          2D

 10  9  0  0  0  0  0  0  0  0999 V2000
    0.7470   -1.4496    0.0000 C   0  0  0  0  0  0  0  0  0  0  0  0
    1.1595   -2.1641    0.0000 C   0  0  0  0  0  0  0  0  0  0  0  0
    1.9845   -2.1641    0.0000 C   0  0  0  0  0  0  0  0  0  0  0  0
    2.3970   -2.8785    0.0000 C   0  0  0  0  0  0  0  0  0  0  0  0
    3.2220   -2.8785    0.0000 C   0  0  0  0  0  0  0  0  0  0  0  0
    3.6345   -3.5930    0.0000 C   0  0  0  0  0  0  0  0  0  0  0  0
    4.4595   -3.5930    0.0000 C   0  0  0  0  0  0  0  0  0  0  0  0
    3.6345   -2.1641    0.0000 C   0  0  0  0  0  0  0  0  0  0  0  0
    3.2220   -1.4496    0.0000 O   0  0  0  0  0  0  0  0  0  0  0  0
    4.4595   -2.1641    0.0000 Cl  0  0  0  0  0  0  0  0  0  0  0  0
  1  2  1  0
  2  3  1  0
  3  4  1  0
  4  5  1  0
  5  6  1  0
  6  7  1  0
  5  8  1  0
  8  9  2  0
  8 10  1  0
M  END
>  <name>  (503) 
2-ethylhexanoyl chloride

>  <Outcome>  (503) 
1

>  <SMILES>  (503) 
CCCCC(CC)C(=O)Cl

$$$$

     RDKit          2D

 15 15  0  0  0  0  0  0  0  0999 V2000
   -2.6133    5.7709    0.0000 C   0  0  0  0  0  0  0  0  0  0  0  0
   -2.6133    4.9459    0.0000 O   0  0  0  0  0  0  0  0  0  0  0  0
   -1.8988    4.5334    0.0000 Si  0  0  0  0  0  4  0  0  0  0  0  0
   -1.1844    4.1209    0.0000 C   0  0  0  0  0  0  0  0  0  0  0  0
   -1.1844    3.2959    0.0000 C   0  0  0  0  0  0  0  0  0  0  0  0
   -0.4699    2.8834    0.0000 C   0  0  0  0  0  0  0  0  0  0  0  0
   -0.4699    2.0584    0.0000 O   0  0  0  0  0  0  0  0  0  0  0  0
    0.2446    1.6459    0.0000 C   0  0  0  0  0  0  0  0  0  0  0  0
    0.2446    0.8209    0.0000 C   0  0  0  0  0  0  0  0  0  0  0  0
    0.6571    0.1064    0.0000 C   0  0  0  0  0  0  0  0  0  0  0  0
   -0.1679    0.1064    0.0000 O   0  0  0  0  0  0  0  0  0  0  0  0
   -2.3113    3.8189    0.0000 O   0  0  0  0  0  0  0  0  0  0  0  0
   -1.8988    3.1045    0.0000 C   0  0  0  0  0  0  0  0  0  0  0  0
   -1.4863    5.2479    0.0000 O   0  0  0  0  0  0  0  0  0  0  0  0
   -0.6613    5.2479    0.0000 C   0  0  0  0  0  0  0  0  0  0  0  0
  1  2  1  0
  2  3  1  0
  3  4  1  0
  4  5  1  0
  5  6  1  0
  6  7  1  0
  7  8  1  0
  8  9  1  0
  9 10  1  0
 10 11  1  0
  9 11  1  0
  3 12  1  0
 12 13  1  0
  3 14  1  0
 14 15  1  0
M  END
>  <name>  (504) 
trimethoxy[3-(oxiran-2-ylmethoxy)propyl]silane

>  <Outcome>  (504) 
0

>  <SMILES>  (504) 
CO[Si](CCCOCC1CO1)(OC)OC

$$$$

     RDKit          2D

  6  6  0  0  0  0  0  0  0  0999 V2000
    1.6486    0.3307    0.0000 C   0  0  0  0  0  0  0  0  0  0  0  0
    0.8640    0.0758    0.0000 C   0  0  0  0  0  0  0  0  0  0  0  0
    0.1966    0.5607    0.0000 C   0  0  0  0  0  0  0  0  0  0  0  0
   -0.4709    0.0758    0.0000 C   0  0  0  0  0  0  0  0  0  0  0  0
   -0.2159   -0.7088    0.0000 O   0  0  0  0  0  0  0  0  0  0  0  0
    0.6091   -0.7088    0.0000 C   0  0  0  0  0  0  0  0  0  0  0  0
  1  2  1  0
  3  2  1  0
  4  3  1  0
  5  4  1  0
  6  5  1  0
  2  6  1  0
M  END
>  <name>  (505) 
Furan, tetrahydro-3-methyl-

>  <Outcome>  (505) 
0

>  <SMILES>  (505) 
CC1CCOC1

$$$$

     RDKit          2D

 11 11  0  0  0  0  0  0  0  0999 V2000
    0.1488   -0.3770    0.0000 C   0  0  0  0  0  0  0  0  0  0  0  0
    0.1488    0.4480    0.0000 N   0  0  0  0  0  0  0  0  0  0  0  0
   -0.5657    0.8605    0.0000 C   0  0  0  0  0  0  0  0  0  0  0  0
   -0.5657    1.6855    0.0000 O   0  0  0  0  0  0  0  0  0  0  0  0
    0.1488    2.0980    0.0000 C   0  0  0  0  0  0  0  0  0  0  0  0
    0.8633    1.6855    0.0000 N   0  0  0  0  0  0  0  0  0  0  0  0
    0.8633    0.8605    0.0000 C   0  0  0  0  0  0  0  0  0  0  0  0
    1.5778    0.4480    0.0000 N   0  0  0  0  0  0  0  0  0  0  0  0
    1.5778   -0.3770    0.0000 N   0  0  0  0  0  0  0  0  0  0  0  0
    2.2922   -0.7895    0.0000 O   0  0  0  0  0  0  0  0  0  0  0  0
    0.8633   -0.7895    0.0000 O   0  0  0  0  0  0  0  0  0  0  0  0
  1  2  1  0
  2  3  1  0
  3  4  1  0
  4  5  1  0
  5  6  1  0
  6  7  2  0
  2  7  1  0
  7  8  1  0
  8  9  1  0
  9 10  1  0
  9 11  2  0
M  CHG  2   9   1  10  -1
M  END
>  <name>  (506) 
3-methyl-N-nitro-3,6-dihydro-2H-1,3,5-oxadiazin-4-amine

>  <Outcome>  (506) 
0

>  <SMILES>  (506) 
CN1COCN=C1N[N+](=O)[O-]

$$$$

     RDKit          2D

 11 10  0  0  0  0  0  0  0  0999 V2000
    3.0164    2.5341    0.0000 C   0  0  0  0  0  0  0  0  0  0  0  0
    3.7309    2.1216    0.0000 N   0  0  0  0  0  0  0  0  0  0  0  0
    3.7309    1.2966    0.0000 C   0  0  0  0  0  0  0  0  0  0  0  0
    4.4453    2.5341    0.0000 C   0  0  0  0  0  0  0  0  0  0  0  0
    5.1598    2.1216    0.0000 C   0  0  0  0  0  0  0  0  0  0  0  0
    5.8743    2.5341    0.0000 O   0  0  0  0  0  0  0  0  0  0  0  0
    6.5887    2.1216    0.0000 C   0  0  0  0  0  0  0  0  0  0  0  0
    7.3032    2.5341    0.0000 C   0  0  0  0  0  0  0  0  0  0  0  0
    8.0177    2.1216    0.0000 N   0  0  0  0  0  0  0  0  0  0  0  0
    8.7321    2.5341    0.0000 C   0  0  0  0  0  0  0  0  0  0  0  0
    8.0177    1.2966    0.0000 C   0  0  0  0  0  0  0  0  0  0  0  0
  1  2  1  0
  2  3  1  0
  2  4  1  0
  4  5  1  0
  5  6  1  0
  6  7  1  0
  7  8  1  0
  8  9  1  0
  9 10  1  0
  9 11  1  0
M  END
>  <name>  (507) 
{2-[2-(dimethylamino)ethoxy]ethyl}dimethylamine

>  <Outcome>  (507) 
1

>  <SMILES>  (507) 
CN(C)CCOCCN(C)C

$$$$

     RDKit          2D

  7  6  0  0  0  0  0  0  0  0999 V2000
    0.1105   -1.2375    0.0000 C   0  0  0  0  0  0  0  0  0  0  0  0
    0.8250   -0.8250    0.0000 C   0  0  0  0  0  0  0  0  0  0  0  0
    1.5395   -1.2375    0.0000 Br  0  0  0  0  0  0  0  0  0  0  0  0
    0.8250    0.0000    0.0000 C   0  0  0  0  0  0  0  0  0  0  0  0
    0.8250    0.8250    0.0000 F   0  0  0  0  0  0  0  0  0  0  0  0
    1.6500    0.0000    0.0000 F   0  0  0  0  0  0  0  0  0  0  0  0
   -0.0000    0.0000    0.0000 F   0  0  0  0  0  0  0  0  0  0  0  0
  1  2  2  0
  2  3  1  0
  2  4  1  0
  4  5  1  0
  4  6  1  0
  4  7  1  0
M  END
>  <name>  (508) 
2-bromo-3,3,3-trifluoroprop-1-ene

>  <Outcome>  (508) 
0

>  <SMILES>  (508) 
C=C(Br)C(F)(F)F

$$$$

     RDKit          2D

 10  8  0  0  0  0  0  0  0  0999 V2000
    0.0000    0.0000    0.0000 C   0  0  0  0  0  0  0  0  0  0  0  0
    1.2990    0.7500    0.0000 C   0  0  0  0  0  0  0  0  0  0  0  0
    2.5981   -0.0000    0.0000 C   0  0  0  0  0  0  0  0  0  0  0  0
    3.8971    0.7500    0.0000 Cl  0  0  0  0  0  0  0  0  0  0  0  0
    1.2990    2.2500    0.0000 Cl  0  0  0  0  0  0  0  0  0  0  0  0
    0.0000    3.2500    0.0000 C   0  0  0  0  0  0  0  0  0  0  0  0
    1.2990    4.0000    0.0000 C   0  0  0  0  0  0  0  0  0  0  0  0
    2.5981    3.2500    0.0000 C   0  0  0  0  0  0  0  0  0  0  0  0
    3.8971    4.0000    0.0000 Cl  0  0  0  0  0  0  0  0  0  0  0  0
   -1.2990    4.0000    0.0000 Cl  0  0  0  0  0  0  0  0  0  0  0  0
  1  2  1  0
  2  3  1  0
  3  4  1  0
  2  5  1  0
  6  7  1  0
  7  8  2  3
  8  9  1  0
  6 10  1  0
M  END
>  <name>  (509) 
1,2-dichloropropane;(E)-1,3-dichloroprop-1-ene

>  <Outcome>  (509) 
2

>  <SMILES>  (509) 
CC(Cl)CCl.ClC=CCCl

$$$$

     RDKit          2D

  3  2  0  0  0  0  0  0  0  0999 V2000
    0.0000    0.0000    0.0000 C   0  0  0  0  0  0  0  0  0  0  0  0
    1.2990    0.7500    0.0000 C   0  0  0  0  0  0  0  0  0  0  0  0
    2.5981    1.5000    0.0000 C   0  0  0  0  0  0  0  0  0  0  0  0
  1  2  1  0
  2  3  3  0
M  END
>  <name>  (510) 
prop-1-yne

>  <Outcome>  (510) 
2

>  <SMILES>  (510) 
C#CC

$$$$

     RDKit          2D

 11 12  0  0  0  0  0  0  0  0999 V2000
    1.5000    0.0000    0.0000 C   0  0  0  0  0  0  0  0  0  0  0  0
    0.7500   -1.2990    0.0000 C   0  0  0  0  0  0  0  0  0  0  0  0
   -0.7500   -1.2990    0.0000 C   0  0  0  0  0  0  0  0  0  0  0  0
   -1.5000    0.0000    0.0000 C   0  0  0  0  0  0  0  0  0  0  0  0
   -0.7500    1.2990    0.0000 C   0  0  0  0  0  0  0  0  0  0  0  0
    0.7500    1.2990    0.0000 C   0  0  0  0  0  0  0  0  0  0  0  0
   -1.7537    2.4138    0.0000 C   0  0  0  0  0  0  0  0  0  0  0  0
   -1.4418    3.8810    0.0000 O   0  0  0  0  0  0  0  0  0  0  0  0
   -3.1240    1.8037    0.0000 N   0  0  0  0  0  0  0  0  0  0  0  0
   -2.9672    0.3119    0.0000 C   0  0  0  0  0  0  0  0  0  0  0  0
   -4.0819   -0.6918    0.0000 O   0  0  0  0  0  0  0  0  0  0  0  0
  1  2  2  0
  2  3  1  0
  3  4  2  0
  4  5  1  0
  5  6  2  0
  5  7  1  0
  7  8  2  0
  7  9  1  0
  9 10  1  0
 10 11  2  0
  6  1  1  0
 10  4  1  0
M  END
>  <name>  (511) 
isoindole-1,3-dione

>  <Outcome>  (511) 
2

>  <SMILES>  (511) 
O=C1NC(=O)c2ccccc21

$$$$

     RDKit          2D

 22 23  0  0  0  0  0  0  0  0999 V2000
    2.7760    0.0000    0.0000 C   0  0  0  0  0  0  0  0  0  0  0  0
    1.2760    0.0000    0.0000 C   0  0  0  0  0  0  0  0  0  0  0  0
    0.3943    1.2135    0.0000 C   0  0  0  0  0  0  0  0  0  0  0  0
   -1.0323    0.7500    0.0000 C   0  0  0  0  0  0  0  0  0  0  0  0
   -2.2458    1.6317    0.0000 O   0  0  0  0  0  0  0  0  0  0  0  0
   -1.0323   -0.7500    0.0000 C   0  0  0  0  0  0  0  0  0  0  0  0
    0.3943   -1.2135    0.0000 C   0  0  0  0  0  0  0  0  0  0  0  0
    0.8578   -2.6401    0.0000 O   0  0  0  0  0  0  0  0  0  0  0  0
   -0.1459   -3.7548    0.0000 C   0  0  0  0  0  0  0  0  0  0  0  0
   -1.6131   -3.4430    0.0000 O   0  0  0  0  0  0  0  0  0  0  0  0
    0.3177   -5.1814    0.0000 C   0  0  0  0  0  0  0  0  0  0  0  0
    1.4324   -6.1851    0.0000 C   0  0  0  0  0  0  0  0  0  0  0  0
    0.0058   -6.6486    0.0000 C   0  0  0  0  0  0  0  0  0  0  0  0
    0.2145   -8.1340    0.0000 C   0  0  0  0  0  0  0  0  0  0  0  0
   -1.4933   -6.5963    0.0000 C   0  0  0  0  0  0  0  0  0  0  0  0
    2.8996   -6.4970    0.0000 C   0  0  0  0  0  0  0  0  0  0  0  0
    3.3631   -7.9236    0.0000 C   0  0  0  0  0  0  0  0  0  0  0  0
    4.8303   -8.2354    0.0000 C   0  0  0  0  0  0  0  0  0  0  0  0
    2.3594   -9.0383    0.0000 C   0  0  0  0  0  0  0  0  0  0  0  0
    0.8578    2.6401    0.0000 C   0  0  0  0  0  0  0  0  0  0  0  0
   -0.1459    3.7548    0.0000 C   0  0  0  0  0  0  0  0  0  0  0  0
    0.3177    5.1814    0.0000 C   0  0  0  0  0  0  0  0  0  0  0  0
  1  2  1  0
  2  3  2  0
  3  4  1  0
  4  5  2  0
  4  6  1  0
  6  7  1  0
  7  8  1  0
  8  9  1  0
  9 10  2  0
  9 11  1  0
 11 12  1  0
 12 13  1  0
 13 14  1  0
 13 15  1  0
 12 16  1  0
 16 17  2  0
 17 18  1  0
 17 19  1  0
  3 20  1  0
 20 21  1  0
 21 22  2  0
  7  2  1  0
 13 11  1  0
M  END
>  <name>  (512) 
(2-methyl-4-oxo-3-prop-2-enylcyclopent-2-en-1-yl) 2,2-dimethyl-3-(2-methylprop-1-enyl)cyclopropane-1-carboxylate

>  <Outcome>  (512) 
2

>  <SMILES>  (512) 
C=CCC1=C(C)C(OC(=O)C2C(C=C(C)C)C2(C)C)CC1=O

$$$$

     RDKit          2D

 10 10  0  0  0  0  0  0  0  0999 V2000
    1.4317    2.4734    0.0000 N   0  0  0  0  0  0  0  0  0  0  0  0
    0.7172    2.0609    0.0000 C   0  0  0  0  0  0  0  0  0  0  0  0
    0.7172    1.2359    0.0000 C   0  0  0  0  0  0  0  0  0  0  0  0
    1.4317    0.8234    0.0000 C   0  0  0  0  0  0  0  0  0  0  0  0
    1.4317   -0.0016    0.0000 C   0  0  0  0  0  0  0  0  0  0  0  0
    0.7172   -0.4141    0.0000 C   0  0  0  0  0  0  0  0  0  0  0  0
    0.0027   -0.0016    0.0000 C   0  0  0  0  0  0  0  0  0  0  0  0
   -0.7117   -0.4141    0.0000 C   0  0  0  0  0  0  0  0  0  0  0  0
   -0.7117   -1.2391    0.0000 N   0  0  0  0  0  0  0  0  0  0  0  0
    0.0027    0.8234    0.0000 C   0  0  0  0  0  0  0  0  0  0  0  0
  1  2  1  0
  2  3  1  0
  3  4  2  0
  4  5  1  0
  5  6  2  0
  6  7  1  0
  7  8  1  0
  8  9  1  0
  7 10  2  0
  3 10  1  0
M  END
>  <name>  (513) 
1,3-phenylenedimethanamine

>  <Outcome>  (513) 
1

>  <SMILES>  (513) 
NCc1cccc(CN)c1

$$$$

     RDKit          2D

  4  3  0  0  0  0  0  0  0  0999 V2000
    2.0607   -0.7175    0.0000 C   0  0  0  0  0  0  0  0  0  0  0  0
    1.2357   -0.7175    0.0000 C   0  0  0  0  0  0  0  0  0  0  0  0
    0.8232   -0.0030    0.0000 C   0  0  0  0  0  0  0  0  0  0  0  0
   -0.0018   -0.0030    0.0000 O   0  0  0  0  0  0  0  0  0  0  0  0
  1  2  2  0
  2  3  1  0
  3  4  1  0
M  END
>  <name>  (514) 
prop-2-en-1-ol

>  <Outcome>  (514) 
1

>  <SMILES>  (514) 
C=CCO

$$$$

     RDKit          2D

  2  1  0  0  0  0  0  0  0  0999 V2000
    0.0000    0.0000    0.0000 Cl  0  0  0  0  0  0  0  0  0  0  0  0
    1.2990    0.7500    0.0000 Cl  0  0  0  0  0  0  0  0  0  0  0  0
  1  2  1  0
M  END
>  <name>  (515) 
molecular chlorine

>  <Outcome>  (515) 
2

>  <SMILES>  (515) 
ClCl

$$$$

     RDKit          2D

 13 12  0  0  0  0  0  0  0  0999 V2000
    1.2760    0.0000    0.0000 C   0  0  0  0  0  0  0  0  0  0  0  0
    0.3943    1.2135    0.0000 C   0  0  0  0  0  0  0  0  0  0  0  0
   -1.0323    0.7500    0.0000 C   0  0  0  0  0  0  0  0  0  0  0  0
   -1.0323   -0.7500    0.0000 C   0  0  0  0  0  0  0  0  0  0  0  0
    0.3943   -1.2135    0.0000 C   0  0  0  0  0  0  0  0  0  0  0  0
   -1.0323   -1.6771    0.0000 C   0  0  0  0  0  0  0  0  0  0  0  0
   -1.9140   -0.4635    0.0000 C   0  0  0  0  0  0  0  0  0  0  0  0
    0.0000    3.7135    0.0000 C   0  0  0  0  0  0  0  0  0  0  0  0
    0.0000    5.2135    0.0000 N   0  0  0  0  0  2  0  0  0  0  0  0
   -0.0000    2.2135    0.0000 O   0  0  0  0  0  0  0  0  0  0  0  0
    2.2760    0.0000    0.0000 C   0  0  0  0  0  0  0  0  0  0  0  0
    2.2760    1.5000    0.0000 N   0  0  0  0  0  2  0  0  0  0  0  0
    2.2760   -1.5000    0.0000 O   0  0  0  0  0  0  0  0  0  0  0  0
  1  2  1  0
  2  3  1  0
  3  4  1  0
  4  5  1  0
  5  6  1  0
  6  7  2  0
  8  9  2  0
  8 10  2  0
 11 12  2  0
 11 13  2  0
  5  1  1  0
  7  3  1  0
M  CHG  2   9  -1  12  -1
M  END
>  <name>  (516) 
bicyclo[2.2.1]hept-2-ene;diisocyanate

>  <Outcome>  (516) 
2

>  <SMILES>  (516) 
C1=CC2CCC1C2.[N-]=C=O.[N-]=C=O

$$$$

     RDKit          2D

  8  7  0  0  0  0  0  0  0  0999 V2000
    0.0000   -0.0022    0.0000 C   0  0  0  0  0  0  0  0  0  0  0  0
    0.7145    0.4103    0.0000 O   0  0  0  0  0  0  0  0  0  0  0  0
    1.4290   -0.0022    0.0000 C   0  0  0  0  0  0  0  0  0  0  0  0
    1.4290   -0.8272    0.0000 O   0  0  0  0  0  0  0  0  0  0  0  0
    2.1435    0.4103    0.0000 C   0  0  0  0  0  0  0  0  0  0  0  0
    2.8579   -0.0022    0.0000 C   0  0  0  0  0  0  0  0  0  0  0  0
    3.5724    0.4103    0.0000 C   0  0  0  0  0  0  0  0  0  0  0  0
    2.8579   -0.8272    0.0000 O   0  0  0  0  0  0  0  0  0  0  0  0
  1  2  1  0
  2  3  1  0
  3  4  2  0
  3  5  1  0
  5  6  1  0
  6  7  1  0
  6  8  2  0
M  END
>  <name>  (517) 
Methyl acetoacetate

>  <Outcome>  (517) 
0

>  <SMILES>  (517) 
COC(=O)CC(C)=O

$$$$

     RDKit          2D

 12 11  0  0  0  0  0  0  0  0999 V2000
    2.9333    2.5583    0.0000 C   0  0  0  0  0  0  0  0  0  0  0  0
    3.6478    2.1458    0.0000 C   0  0  0  0  0  0  0  0  0  0  0  0
    4.3622    2.5583    0.0000 C   0  0  0  0  0  0  0  0  0  0  0  0
    5.0767    2.1458    0.0000 C   0  0  0  0  0  0  0  0  0  0  0  0
    5.7912    2.5583    0.0000 C   0  0  0  0  0  0  0  0  0  0  0  0
    5.7912    3.3833    0.0000 C   0  0  0  0  0  0  0  0  0  0  0  0
    6.5056    3.7958    0.0000 C   0  0  0  0  0  0  0  0  0  0  0  0
    6.5056    2.1458    0.0000 C   0  0  0  0  0  0  0  0  0  0  0  0
    7.2201    2.5583    0.0000 O   0  0  0  0  0  0  0  0  0  0  0  0
    7.9346    2.1458    0.0000 C   0  0  0  0  0  0  0  0  0  0  0  0
    8.6491    2.5583    0.0000 O   0  0  0  0  0  0  0  0  0  0  0  0
    7.9346    1.3208    0.0000 Cl  0  0  0  0  0  0  0  0  0  0  0  0
  1  2  1  0
  2  3  1  0
  3  4  1  0
  4  5  1  0
  5  6  1  0
  6  7  1  0
  5  8  1  0
  8  9  1  0
  9 10  1  0
 10 11  2  0
 10 12  1  0
M  END
>  <name>  (518) 
2-ethylhexyl chlorocarbonate

>  <Outcome>  (518) 
1

>  <SMILES>  (518) 
CCCCC(CC)COC(=O)Cl

$$$$

     RDKit          2D

  9  9  0  0  0  0  0  0  0  0999 V2000
    0.1320    3.3848    0.0000 C   0  0  0  0  0  0  0  0  0  0  0  0
    0.1320    2.5598    0.0000 C   0  0  0  0  0  0  0  0  0  0  0  0
    0.8465    2.1473    0.0000 O   0  0  0  0  0  0  0  0  0  0  0  0
    0.8465    1.3223    0.0000 C   0  0  0  0  0  0  0  0  0  0  0  0
    1.5610    0.9098    0.0000 C   0  0  0  0  0  0  0  0  0  0  0  0
    1.5610    0.0848    0.0000 C   0  0  0  0  0  0  0  0  0  0  0  0
    0.8465   -0.3277    0.0000 C   0  0  0  0  0  0  0  0  0  0  0  0
    0.1320    0.0848    0.0000 C   0  0  0  0  0  0  0  0  0  0  0  0
    0.1320    0.9098    0.0000 C   0  0  0  0  0  0  0  0  0  0  0  0
  1  2  2  0
  2  3  1  0
  3  4  1  0
  4  5  1  0
  5  6  1  0
  6  7  1  0
  7  8  1  0
  8  9  1  0
  4  9  1  0
M  END
>  <name>  (519) 
(ethenyloxy)cyclohexane

>  <Outcome>  (519) 
0

>  <SMILES>  (519) 
C=COC1CCCCC1

$$$$

     RDKit          2D

  9  8  0  0  0  0  0  0  0  0999 V2000
    2.9980    2.5587    0.0000 N   0  0  0  0  0  0  0  0  0  0  0  0
    3.7125    2.1462    0.0000 C   0  0  0  0  0  0  0  0  0  0  0  0
    4.4270    2.5587    0.0000 C   0  0  0  0  0  0  0  0  0  0  0  0
    5.1414    2.1462    0.0000 C   0  0  0  0  0  0  0  0  0  0  0  0
    5.8559    2.5587    0.0000 N   0  0  0  0  0  0  0  0  0  0  0  0
    6.5704    2.1462    0.0000 C   0  0  0  0  0  0  0  0  0  0  0  0
    7.2849    2.5587    0.0000 C   0  0  0  0  0  0  0  0  0  0  0  0
    7.9993    2.1462    0.0000 C   0  0  0  0  0  0  0  0  0  0  0  0
    8.7138    2.5587    0.0000 N   0  0  0  0  0  0  0  0  0  0  0  0
  1  2  1  0
  2  3  1  0
  3  4  1  0
  4  5  1  0
  5  6  1  0
  6  7  1  0
  7  8  1  0
  8  9  1  0
M  END
>  <name>  (520) 
bis(3-aminopropyl)amine

>  <Outcome>  (520) 
1

>  <SMILES>  (520) 
NCCCNCCCN

$$$$

     RDKit          2D

 46 54  0  0  0  0  0  0  0  0999 V2000
    6.8211    3.0789    0.0000 C   0  0  0  0  0  0  0  0  0  0  0  0
    6.4086    2.3645    0.0000 C   0  0  0  0  0  0  0  0  0  0  0  0
    6.8211    1.6500    0.0000 C   0  0  0  0  0  0  0  0  0  0  0  0
    6.4086    0.9355    0.0000 C   0  0  0  0  0  0  0  0  0  0  0  0
    6.8211    0.2211    0.0000 C   0  0  0  0  0  0  0  0  0  0  0  0
    5.5836    0.9355    0.0000 C   0  0  0  0  0  0  0  0  0  0  0  0
    5.1711    1.6500    0.0000 C   0  0  0  0  0  0  0  0  0  0  0  0
    4.3461    1.6500    0.0000 N   0  0  0  0  0  0  0  0  0  0  0  0
    3.9336    0.9355    0.0000 C   0  0  0  0  0  0  0  0  0  0  0  0
    4.3461    0.2211    0.0000 O   0  0  0  0  0  0  0  0  0  0  0  0
    3.1086    0.9355    0.0000 C   0  0  0  0  0  0  0  0  0  0  0  0
    2.6961    0.2211    0.0000 C   0  0  0  0  0  0  0  0  0  0  0  0
    1.8711    0.2211    0.0000 C   0  0  0  0  0  0  0  0  0  0  0  0
    1.4586    0.9355    0.0000 C   0  0  0  0  0  0  0  0  0  0  0  0
    0.6336    0.9355    0.0000 C   0  0  0  0  0  0  0  0  0  0  0  0
    0.2211    0.2211    0.0000 C   0  0  0  0  0  0  0  0  0  0  0  0
   -0.6039    0.2211    0.0000 C   0  0  0  0  0  0  0  0  0  0  0  0
   -1.0164    0.9355    0.0000 C   0  0  0  0  0  0  0  0  0  0  0  0
   -1.8414    0.9355    0.0000 C   0  0  0  0  0  0  0  0  0  0  0  0
   -2.2539    0.2211    0.0000 O   0  0  0  0  0  0  0  0  0  0  0  0
   -2.2539    1.6500    0.0000 N   0  0  0  0  0  0  0  0  0  0  0  0
   -3.0789    1.6500    0.0000 C   0  0  0  0  0  0  0  0  0  0  0  0
   -3.4914    0.9355    0.0000 C   0  0  0  0  0  0  0  0  0  0  0  0
   -4.3164    0.9355    0.0000 C   0  0  0  0  0  0  0  0  0  0  0  0
   -4.7289    0.2211    0.0000 C   0  0  0  0  0  0  0  0  0  0  0  0
   -4.7289    1.6500    0.0000 C   0  0  0  0  0  0  0  0  0  0  0  0
   -4.3164    2.3645    0.0000 C   0  0  0  0  0  0  0  0  0  0  0  0
   -4.7289    3.0789    0.0000 C   0  0  0  0  0  0  0  0  0  0  0  0
   -3.4914    2.3645    0.0000 C   0  0  0  0  0  0  0  0  0  0  0  0
   -1.8414    2.3645    0.0000 C   0  0  0  0  0  0  0  0  0  0  0  0
   -2.2539    3.0789    0.0000 O   0  0  0  0  0  0  0  0  0  0  0  0
   -1.0164    2.3645    0.0000 C   0  0  0  0  0  0  0  0  0  0  0  0
   -0.6039    3.0789    0.0000 C   0  0  0  0  0  0  0  0  0  0  0  0
    0.2211    3.0789    0.0000 C   0  0  0  0  0  0  0  0  0  0  0  0
    0.6336    2.3645    0.0000 C   0  0  0  0  0  0  0  0  0  0  0  0
    1.4586    2.3645    0.0000 C   0  0  0  0  0  0  0  0  0  0  0  0
    1.8711    3.0789    0.0000 C   0  0  0  0  0  0  0  0  0  0  0  0
    2.6961    3.0789    0.0000 C   0  0  0  0  0  0  0  0  0  0  0  0
    3.1086    2.3645    0.0000 C   0  0  0  0  0  0  0  0  0  0  0  0
    3.9336    2.3645    0.0000 C   0  0  0  0  0  0  0  0  0  0  0  0
    4.3461    3.0789    0.0000 O   0  0  0  0  0  0  0  0  0  0  0  0
    2.6961    1.6500    0.0000 C   0  0  0  0  0  0  0  0  0  0  0  0
    1.8711    1.6500    0.0000 C   0  0  0  0  0  0  0  0  0  0  0  0
    0.2211    1.6500    0.0000 C   0  0  0  0  0  0  0  0  0  0  0  0
   -0.6039    1.6500    0.0000 C   0  0  0  0  0  0  0  0  0  0  0  0
    5.5836    2.3645    0.0000 C   0  0  0  0  0  0  0  0  0  0  0  0
  1  2  1  0
  2  3  2  0
  3  4  1  0
  4  5  1  0
  4  6  2  0
  6  7  1  0
  7  8  1  0
  8  9  1  0
  9 10  2  0
  9 11  1  0
 11 12  2  0
 12 13  1  0
 13 14  2  0
 14 15  1  0
 15 16  2  0
 16 17  1  0
 17 18  2  0
 18 19  1  0
 19 20  2  0
 19 21  1  0
 21 22  1  0
 22 23  2  0
 23 24  1  0
 24 25  1  0
 24 26  2  0
 26 27  1  0
 27 28  1  0
 27 29  2  0
 22 29  1  0
 21 30  1  0
 30 31  2  0
 30 32  1  0
 32 33  2  0
 33 34  1  0
 34 35  2  0
 35 36  1  0
 36 37  1  0
 37 38  2  0
 38 39  1  0
 39 40  1  0
  8 40  1  0
 40 41  2  0
 39 42  2  0
 11 42  1  0
 42 43  1  0
 14 43  1  0
 36 43  2  0
 35 44  1  0
 15 44  1  0
 44 45  2  0
 18 45  1  0
 32 45  1  0
  7 46  2  0
  2 46  1  0
M  END
>  <name>  (521) 
7,18-bis(3,5-dimethylphenyl)-7,18-diazaheptacyclo[14.6.2.2??,????.0??,????.0????,????.0????,????.0??????,??????]hexacosa-1(22),2,4,9,11,13(23),14,16(24),20,25-decaene-6,8,17,19-tetrone

>  <Outcome>  (521) 
0

>  <SMILES>  (521) 
Cc1cc(C)cc(N2C(=O)c3ccc4c5ccc6c7c(ccc(c8ccc(c3c48)C2=O)c75)C(=O)N(c2cc(C)cc(C)c2)C6=O)c1

$$$$

     RDKit          2D

 11 11  0  0  0  0  0  0  0  0999 V2000
    1.5000    0.0000    0.0000 C   0  0  0  0  0  0  0  0  0  0  0  0
    0.7500   -1.2990    0.0000 C   0  0  0  0  0  0  0  0  0  0  0  0
   -0.7500   -1.2990    0.0000 C   0  0  0  0  0  0  0  0  0  0  0  0
   -1.5000    0.0000    0.0000 C   0  0  0  0  0  0  0  0  0  0  0  0
   -0.7500    1.2990    0.0000 C   0  0  0  0  0  0  0  0  0  0  0  0
    0.7500    1.2990    0.0000 C   0  0  0  0  0  0  0  0  0  0  0  0
    1.5000    2.5981    0.0000 Cl  0  0  0  0  0  0  0  0  0  0  0  0
   -3.0000    0.0000    0.0000 Cl  0  0  0  0  0  0  0  0  0  0  0  0
    1.5000   -2.5981    0.0000 C   0  0  0  0  0  0  0  0  0  0  0  0
    0.7500   -3.8971    0.0000 O   0  0  0  0  0  0  0  0  0  0  0  0
    3.0000   -2.5981    0.0000 Cl  0  0  0  0  0  0  0  0  0  0  0  0
  1  2  2  0
  2  3  1  0
  3  4  2  0
  4  5  1  0
  5  6  2  0
  6  7  1  0
  4  8  1  0
  2  9  1  0
  9 10  2  0
  9 11  1  0
  6  1  1  0
M  END
>  <name>  (522) 
3,5-dichlorobenzoyl chloride

>  <Outcome>  (522) 
2

>  <SMILES>  (522) 
O=C(Cl)c1cc(Cl)cc(Cl)c1

$$$$

     RDKit          2D

  7  6  0  0  0  0  0  0  0  0999 V2000
    3.2130   -0.7702    0.0000 C   0  0  0  0  0  0  0  0  0  0  0  0
    2.8005   -0.0557    0.0000 O   0  0  0  0  0  0  0  0  0  0  0  0
    1.9755   -0.0557    0.0000 C   0  0  0  0  0  0  0  0  0  0  0  0
    1.5630    0.6587    0.0000 O   0  0  0  0  0  0  0  0  0  0  0  0
    0.7380    0.6587    0.0000 C   0  0  0  0  0  0  0  0  0  0  0  0
    1.5630   -0.7702    0.0000 O   0  0  0  0  0  0  0  0  0  0  0  0
    0.7380   -0.7702    0.0000 C   0  0  0  0  0  0  0  0  0  0  0  0
  1  2  1  0
  2  3  1  0
  3  4  1  0
  4  5  1  0
  3  6  1  0
  6  7  1  0
M  END
>  <name>  (523) 
Trimethoxymethane

>  <Outcome>  (523) 
0

>  <SMILES>  (523) 
COC(OC)OC

$$$$

     RDKit          2D

  6  5  0  0  0  0  0  0  0  0999 V2000
    0.0000    0.0000    0.0000 C   0  0  0  0  0  0  0  0  0  0  0  0
    1.2990    0.7500    0.0000 C   0  0  0  0  0  0  0  0  0  0  0  0
    2.5981    1.5000    0.0000 F   0  0  0  0  0  0  0  0  0  0  0  0
    2.0490   -0.5490    0.0000 F   0  0  0  0  0  0  0  0  0  0  0  0
    0.5490    2.0490    0.0000 Cl  0  0  0  0  0  0  0  0  0  0  0  0
   -1.2990    0.7500    0.0000 Cl  0  0  0  0  0  0  0  0  0  0  0  0
  1  2  1  0
  2  3  1  0
  2  4  1  0
  2  5  1  0
  1  6  1  0
M  END
>  <name>  (524) 
1,2-dichloro-1,1-difluoroethane

>  <Outcome>  (524) 
2

>  <SMILES>  (524) 
FC(F)(Cl)CCl

$$$$

     RDKit          2D

  5  4  0  0  0  0  0  0  0  0999 V2000
    2.0625   -0.7145    0.0000 C   0  0  0  0  0  0  0  0  0  0  0  0
    1.6500    0.0000    0.0000 C   0  0  0  0  0  0  0  0  0  0  0  0
    2.0625    0.7145    0.0000 C   0  0  0  0  0  0  0  0  0  0  0  0
    0.8250    0.0000    0.0000 C   0  0  0  0  0  0  0  0  0  0  0  0
   -0.0000    0.0000    0.0000 N   0  0  0  0  0  0  0  0  0  0  0  0
  1  2  2  0
  2  3  1  0
  2  4  1  0
  4  5  3  0
M  END
>  <name>  (525) 
methacrylonitrile

>  <Outcome>  (525) 
1

>  <SMILES>  (525) 
C=C(C)C#N

$$$$

     RDKit          2D

 20 19  0  0  0  0  0  0  0  0999 V2000
    0.3316    2.6664    0.0000 O   0  0  0  0  0  0  0  0  0  0  0  0
    0.3316    1.8414    0.0000 C   0  0  0  0  0  0  0  0  0  0  0  0
    1.0461    1.4289    0.0000 N   0  0  0  0  0  0  0  0  0  0  0  0
    1.7605    1.8414    0.0000 C   0  0  0  0  0  0  0  0  0  0  0  0
    2.4750    1.4289    0.0000 C   0  0  0  0  0  0  0  0  0  0  0  0
    3.1895    1.8414    0.0000 C   0  0  0  0  0  0  0  0  0  0  0  0
    3.9039    1.4289    0.0000 C   0  0  0  0  0  0  0  0  0  0  0  0
    4.6184    1.8414    0.0000 C   0  0  0  0  0  0  0  0  0  0  0  0
    5.3329    1.4289    0.0000 C   0  0  0  0  0  0  0  0  0  0  0  0
    6.0474    1.8414    0.0000 N   0  0  0  0  0  0  0  0  0  0  0  0
    6.7618    1.4289    0.0000 C   0  0  0  0  0  0  0  0  0  0  0  0
    6.7618    0.6039    0.0000 O   0  0  0  0  0  0  0  0  0  0  0  0
    7.4763    1.8414    0.0000 S   0  0  0  0  0  0  0  0  0  0  0  0
    8.1908    2.2539    0.0000 O   0  0  0  0  0  0  0  0  0  0  0  0
    7.0638    2.5559    0.0000 O   0  0  0  0  0  0  0  0  0  0  0  0
    7.8888    1.1269    0.0000 O   0  0  0  0  0  0  0  0  0  0  0  0
   -0.3829    1.4289    0.0000 S   0  0  0  0  0  0  0  0  0  0  0  0
   -1.0974    1.0164    0.0000 O   0  0  0  0  0  0  0  0  0  0  0  0
   -0.7954    2.1434    0.0000 O   0  0  0  0  0  0  0  0  0  0  0  0
    0.0296    0.7144    0.0000 O   0  0  0  0  0  0  0  0  0  0  0  0
  1  2  2  0
  2  3  1  0
  3  4  1  0
  4  5  1  0
  5  6  1  0
  6  7  1  0
  7  8  1  0
  8  9  1  0
  9 10  1  0
 10 11  1  0
 11 12  2  0
 11 13  1  0
 13 14  2  0
 13 15  2  0
 13 16  1  0
  2 17  1  0
 17 18  2  0
 17 19  2  0
 17 20  1  0
M  END
>  <name>  (526) 
unnamed [38632-47-2]

>  <Outcome>  (526) 
0

>  <SMILES>  (526) 
O=C(NCCCCCCNC(=O)S(=O)(=O)O)S(=O)(=O)O

$$$$

     RDKit          2D

  4  3  0  0  0  0  0  0  0  0999 V2000
    2.0625   -0.7145    0.0000 C   0  0  0  0  0  0  0  0  0  0  0  0
    1.2375   -0.7145    0.0000 C   0  0  0  0  0  0  0  0  0  0  0  0
    0.8250   -0.0000    0.0000 C   0  0  0  0  0  0  0  0  0  0  0  0
    0.0000   -0.0000    0.0000 O   0  0  0  0  0  0  0  0  0  0  0  0
  1  2  1  0
  2  3  1  0
  3  4  1  0
M  END
>  <name>  (527) 
propan-1-ol

>  <Outcome>  (527) 
0

>  <SMILES>  (527) 
CCCO

$$$$

     RDKit          2D

  8  8  0  0  0  0  0  0  0  0999 V2000
    1.5000    0.0000    0.0000 C   0  0  0  0  0  0  0  0  0  0  0  0
    0.7500   -1.2990    0.0000 C   0  0  0  0  0  0  0  0  0  0  0  0
   -0.7500   -1.2990    0.0000 C   0  0  0  0  0  0  0  0  0  0  0  0
   -1.5000    0.0000    0.0000 C   0  0  0  0  0  0  0  0  0  0  0  0
   -0.7500    1.2990    0.0000 C   0  0  0  0  0  0  0  0  0  0  0  0
    0.7500    1.2990    0.0000 C   0  0  0  0  0  0  0  0  0  0  0  0
   -3.0000    0.0000    0.0000 C   0  0  0  0  0  0  0  0  0  0  0  0
   -3.7500    1.2990    0.0000 N   0  0  0  0  0  0  0  0  0  0  0  0
  1  2  2  0
  2  3  1  0
  3  4  2  0
  4  5  1  0
  5  6  2  0
  4  7  1  0
  7  8  1  0
  6  1  1  0
M  END
>  <name>  (528) 
phenylmethanamine

>  <Outcome>  (528) 
2

>  <SMILES>  (528) 
NCc1ccccc1

$$$$

     RDKit          2D

  2  1  0  0  0  0  0  0  0  0999 V2000
    0.8250    0.0000    0.0000 C   0  0  0  0  0  0  0  0  0  0  0  0
    0.0000    0.0000    0.0000 O   0  0  0  0  0  0  0  0  0  0  0  0
  1  2  3  0
M  CHG  2   1  -1   2   1
M  END
>  <name>  (529) 
methanidylidyneoxidanium

>  <Outcome>  (529) 
1

>  <SMILES>  (529) 
[C-]#[O+]

$$$$

     RDKit          2D

 17 16  0  0  0  0  0  0  0  0999 V2000
    5.9961    4.2868    0.0000 C   0  0  0  0  0  0  0  0  0  0  0  0
    6.7105    4.6993    0.0000 C   0  0  0  0  0  0  0  0  0  0  0  0
    7.4250    4.2868    0.0000 C   0  0  0  0  0  0  0  0  0  0  0  0
    8.1395    4.6993    0.0000 C   0  0  0  0  0  0  0  0  0  0  0  0
    8.8539    4.2868    0.0000 C   0  0  0  0  0  0  0  0  0  0  0  0
    9.5684    4.6993    0.0000 C   0  0  0  0  0  0  0  0  0  0  0  0
   10.2829    4.2868    0.0000 C   0  0  0  0  0  0  0  0  0  0  0  0
   10.9974    4.6993    0.0000 C   0  0  0  0  0  0  0  0  0  0  0  0
   11.7118    4.2868    0.0000 C   0  0  0  0  0  0  0  0  0  0  0  0
   12.4263    4.6993    0.0000 C   0  0  0  0  0  0  0  0  0  0  0  0
   13.1408    4.2868    0.0000 C   0  0  0  0  0  0  0  0  0  0  0  0
   13.8552    4.6993    0.0000 C   0  0  0  0  0  0  0  0  0  0  0  0
   14.5697    4.2868    0.0000 C   0  0  0  0  0  0  0  0  0  0  0  0
   15.2842    4.6993    0.0000 C   0  0  0  0  0  0  0  0  0  0  0  0
   15.2842    5.5243    0.0000 O   0  0  0  0  0  0  0  0  0  0  0  0
   15.9987    4.2868    0.0000 O   0  0  0  0  0  0  0  0  0  0  0  0
   16.7131    4.6993    0.0000 C   0  0  0  0  0  0  0  0  0  0  0  0
  1  2  1  0
  2  3  1  0
  3  4  1  0
  4  5  1  0
  5  6  1  0
  6  7  1  0
  7  8  1  0
  8  9  1  0
  9 10  1  0
 10 11  1  0
 11 12  1  0
 12 13  1  0
 13 14  1  0
 14 15  2  0
 14 16  1  0
 16 17  1  0
M  END
>  <name>  (530) 
methyl tetradecanoate

>  <Outcome>  (530) 
0

>  <SMILES>  (530) 
CCCCCCCCCCCCCC(=O)OC

$$$$

     RDKit          2D

 10  9  0  0  0  0  0  0  0  0999 V2000
    1.0010    1.4299    0.0000 C   0  0  0  0  0  0  0  0  0  0  0  0
    1.7155    1.8424    0.0000 C   0  0  0  0  0  0  0  0  0  0  0  0
    2.4300    1.4299    0.0000 C   0  0  0  0  0  0  0  0  0  0  0  0
    3.1444    1.8424    0.0000 C   0  0  0  0  0  0  0  0  0  0  0  0
    3.1444    2.6674    0.0000 C   0  0  0  0  0  0  0  0  0  0  0  0
    3.8589    1.4299    0.0000 C   0  0  0  0  0  0  0  0  0  0  0  0
    3.8589    0.6049    0.0000 O   0  0  0  0  0  0  0  0  0  0  0  0
    4.5734    1.8424    0.0000 O   0  0  0  0  0  0  0  0  0  0  0  0
    5.2878    1.4299    0.0000 C   0  0  0  0  0  0  0  0  0  0  0  0
    6.0023    1.8424    0.0000 C   0  0  0  0  0  0  0  0  0  0  0  0
  1  2  1  0
  2  3  1  0
  3  4  1  0
  4  5  1  0
  4  6  1  0
  6  7  2  0
  6  8  1  0
  8  9  1  0
  9 10  1  0
M  END
>  <name>  (531) 
ethyl 2-methylpentanoate

>  <Outcome>  (531) 
0

>  <SMILES>  (531) 
CCCC(C)C(=O)OCC

$$$$

     RDKit          2D

 12 13  0  0  0  0  0  0  0  0999 V2000
    0.0000   -0.0000    0.0000 O   0  0  0  0  0  0  0  0  0  0  0  0
    0.7145   -0.4125    0.0000 C   0  0  0  0  0  0  0  0  0  0  0  0
    1.4289   -0.0000    0.0000 N   0  0  0  0  0  0  0  0  0  0  0  0
    2.1434   -0.4125    0.0000 C   0  0  0  0  0  0  0  0  0  0  0  0
    2.8579   -0.0000    0.0000 C   0  0  0  0  0  0  0  0  0  0  0  0
    3.5724   -0.4125    0.0000 C   0  0  0  0  0  0  0  0  0  0  0  0
    3.5724   -1.2375    0.0000 C   0  0  0  0  0  0  0  0  0  0  0  0
    2.8579   -1.6500    0.0000 C   0  0  0  0  0  0  0  0  0  0  0  0
    2.1434   -1.2375    0.0000 C   0  0  0  0  0  0  0  0  0  0  0  0
    1.4289   -1.6500    0.0000 C   0  0  0  0  0  0  0  0  0  0  0  0
    1.4289   -2.4750    0.0000 O   0  0  0  0  0  0  0  0  0  0  0  0
    0.7145   -1.2375    0.0000 O   0  0  0  0  0  0  0  0  0  0  0  0
  1  2  2  0
  2  3  1  0
  3  4  1  0
  4  5  2  0
  5  6  1  0
  6  7  2  0
  7  8  1  0
  8  9  2  0
  4  9  1  0
  9 10  1  0
 10 11  2  0
 10 12  1  0
  2 12  1  0
M  END
>  <name>  (532) 
2,4-dihydro-1H-3,1-benzoxazine-2,4-dione

>  <Outcome>  (532) 
0

>  <SMILES>  (532) 
O=c1[nH]c2ccccc2c(=O)o1

$$$$

     RDKit          2D

  3  2  0  0  0  0  0  0  0  0999 V2000
    1.6500   -0.0000    0.0000 S   0  0  0  0  0  0  0  0  0  0  0  0
    2.4750   -0.0000    0.0000 C   0  0  0  0  0  0  0  0  0  0  0  0
    3.3000    0.0000    0.0000 S   0  0  0  0  0  0  0  0  0  0  0  0
  1  2  2  0
  2  3  2  0
M  END
>  <name>  (533) 
dithioxomethane

>  <Outcome>  (533) 
1

>  <SMILES>  (533) 
S=C=S

$$$$

     RDKit          2D

  6  6  0  0  0  0  0  0  0  0999 V2000
    0.7145    1.2375    0.0000 C   0  0  0  0  0  0  0  0  0  0  0  0
    1.4289    0.8250    0.0000 C   0  0  0  0  0  0  0  0  0  0  0  0
    1.4289   -0.0000    0.0000 C   0  0  0  0  0  0  0  0  0  0  0  0
    0.7145   -0.4125    0.0000 C   0  0  0  0  0  0  0  0  0  0  0  0
    0.0000    0.0000    0.0000 C   0  0  0  0  0  0  0  0  0  0  0  0
    0.0000    0.8250    0.0000 C   0  0  0  0  0  0  0  0  0  0  0  0
  1  2  2  0
  2  3  1  0
  3  4  2  0
  4  5  1  0
  5  6  2  0
  1  6  1  0
M  END
>  <name>  (534) 
benzene

>  <Outcome>  (534) 
0

>  <SMILES>  (534) 
c1ccccc1

$$$$

     RDKit          2D

  7  5  0  0  0  0  0  0  0  0999 V2000
    0.0000    0.0000    0.0000 O   0  0  0  0  0  1  0  0  0  0  0  0
    1.2990    0.7500    0.0000 S   0  0  0  0  0  0  0  0  0  0  0  0
    2.0490   -0.5490    0.0000 O   0  0  0  0  0  0  0  0  0  0  0  0
    0.5490    2.0490    0.0000 O   0  0  0  0  0  0  0  0  0  0  0  0
    2.5981    1.5000    0.0000 O   0  0  0  0  0  1  0  0  0  0  0  0
    3.5981    0.0000    0.0000 O   0  0  0  0  0  0  0  0  0  0  0  0
    4.8971    0.7500    0.0000 V   0  0  0  0  0  2  0  0  0  0  0  0
  1  2  1  0
  2  3  2  0
  2  4  2  0
  2  5  1  0
  6  7  2  0
M  CHG  3   1  -1   5  -1   7   2
M  RAD  1   7   2
M  END
>  <name>  (535) 
oxovanadium(2+);sulfate

>  <Outcome>  (535) 
2

>  <SMILES>  (535) 
O=S(=O)([O-])[O-].O=[V+2]

$$$$

     RDKit          2D

  8  8  0  0  0  0  0  0  0  0999 V2000
    0.7145    2.0625    0.0000 O   0  0  0  0  0  0  0  0  0  0  0  0
    0.7145    1.2375    0.0000 N   0  0  0  0  0  0  0  0  0  0  0  0
    1.4289    0.8250    0.0000 C   0  0  0  0  0  0  0  0  0  0  0  0
    1.4289   -0.0000    0.0000 C   0  0  0  0  0  0  0  0  0  0  0  0
    0.7145   -0.4125    0.0000 C   0  0  0  0  0  0  0  0  0  0  0  0
   -0.0000   -0.0000    0.0000 C   0  0  0  0  0  0  0  0  0  0  0  0
   -0.0000    0.8250    0.0000 C   0  0  0  0  0  0  0  0  0  0  0  0
   -0.7145    1.2375    0.0000 S   0  0  0  0  0  0  0  0  0  0  0  0
  1  2  1  0
  2  3  1  0
  3  4  2  0
  4  5  1  0
  5  6  2  0
  6  7  1  0
  2  7  1  0
  7  8  2  0
M  END
>  <name>  (536) 
sodium (1-oxo-1??????-pyridin-2-yl)sulfanide

>  <Outcome>  (536) 
1

>  <SMILES>  (536) 
On1ccccc1=S

$$$$

     RDKit          2D

 16 17  0  0  0  0  0  0  0  0999 V2000
    0.8131    0.7947    0.0000 O   0  0  0  0  0  0  0  0  0  0  0  0
    1.0681    0.0101    0.0000 C   0  0  0  0  0  0  0  0  0  0  0  0
    1.8527   -0.2448    0.0000 C   0  0  0  0  0  0  0  0  0  0  0  0
    2.5672    0.1677    0.0000 C   0  0  0  0  0  0  0  0  0  0  0  0
    3.2816   -0.2448    0.0000 C   0  0  0  0  0  0  0  0  0  0  0  0
    3.2816   -1.0698    0.0000 C   0  0  0  0  0  0  0  0  0  0  0  0
    2.5672   -1.4823    0.0000 C   0  0  0  0  0  0  0  0  0  0  0  0
    1.8527   -1.0698    0.0000 C   0  0  0  0  0  0  0  0  0  0  0  0
    1.0681   -1.3248    0.0000 C   0  0  0  0  0  0  0  0  0  0  0  0
    0.8131   -2.1094    0.0000 O   0  0  0  0  0  0  0  0  0  0  0  0
    0.5832   -0.6573    0.0000 N   0  0  0  0  0  0  0  0  0  0  0  0
   -0.2418   -0.6573    0.0000 S   0  0  0  0  0  0  0  0  0  0  0  0
   -0.6543   -1.3718    0.0000 C   0  0  0  0  0  0  0  0  0  0  0  0
   -1.0668   -2.0863    0.0000 Cl  0  0  0  0  0  0  0  0  0  0  0  0
   -1.3688   -0.9593    0.0000 Cl  0  0  0  0  0  0  0  0  0  0  0  0
    0.0601   -1.7843    0.0000 Cl  0  0  0  0  0  0  0  0  0  0  0  0
  1  2  2  0
  2  3  1  0
  3  4  1  0
  4  5  1  0
  5  6  2  0
  6  7  1  0
  7  8  1  0
  3  8  1  0
  8  9  1  0
  9 10  2  0
  9 11  1  0
  2 11  1  0
 11 12  1  0
 12 13  1  0
 13 14  1  0
 13 15  1  0
 13 16  1  0
M  END
>  <name>  (537) 
2-[(trichloromethyl)sulfanyl]-2,3,3a,4,7,7a-hexahydro-1H-isoindole-1,3-dione

>  <Outcome>  (537) 
1

>  <SMILES>  (537) 
O=C1C2CC=CCC2C(=O)N1SC(Cl)(Cl)Cl

$$$$

     RDKit          2D

 11 10  0  0  0  0  0  0  0  0999 V2000
   -2.2079    2.0998    0.0000 C   0  0  0  0  0  0  0  0  0  0  0  0
   -1.4934    1.6873    0.0000 C   0  0  0  0  0  0  0  0  0  0  0  0
   -1.4934    0.8623    0.0000 C   0  0  0  0  0  0  0  0  0  0  0  0
   -0.7790    2.0998    0.0000 C   0  0  0  0  0  0  0  0  0  0  0  0
   -0.7790    2.9248    0.0000 O   0  0  0  0  0  0  0  0  0  0  0  0
   -0.0645    1.6873    0.0000 O   0  0  0  0  0  0  0  0  0  0  0  0
    0.6500    2.0998    0.0000 C   0  0  0  0  0  0  0  0  0  0  0  0
    0.6500    2.9248    0.0000 O   0  0  0  0  0  0  0  0  0  0  0  0
    1.3644    1.6873    0.0000 C   0  0  0  0  0  0  0  0  0  0  0  0
    2.0789    2.0998    0.0000 C   0  0  0  0  0  0  0  0  0  0  0  0
    1.3644    0.8623    0.0000 C   0  0  0  0  0  0  0  0  0  0  0  0
  1  2  1  0
  2  3  1  0
  2  4  1  0
  4  5  2  0
  4  6  1  0
  6  7  1  0
  7  8  2  0
  7  9  1  0
  9 10  1  0
  9 11  1  0
M  END
>  <name>  (538) 
Isobutyric anhydride

>  <Outcome>  (538) 
1

>  <SMILES>  (538) 
CC(C)C(=O)OC(=O)C(C)C

$$$$

     RDKit          2D

 24 24  0  0  0  0  0  0  0  0999 V2000
   -2.2880   -9.4527    0.0000 C   0  0  0  0  0  0  0  0  0  0  0  0
   -1.5735   -9.0402    0.0000 C   0  0  0  0  0  0  0  0  0  0  0  0
   -0.8591   -9.4527    0.0000 C   0  0  0  0  0  0  0  0  0  0  0  0
   -0.1446   -9.0402    0.0000 C   0  0  0  0  0  0  0  0  0  0  0  0
    0.5699   -9.4527    0.0000 C   0  0  0  0  0  0  0  0  0  0  0  0
    1.2844   -9.0402    0.0000 C   0  0  0  0  0  0  0  0  0  0  0  0
    1.9988   -9.4527    0.0000 C   0  0  0  0  0  0  0  0  0  0  0  0
    2.7133   -9.0402    0.0000 C   0  0  0  0  0  0  0  0  0  0  0  0
    3.4278   -9.4527    0.0000 C   0  0  0  0  0  0  0  0  0  0  0  0
    4.1422   -9.0402    0.0000 C   0  0  0  0  0  0  0  0  0  0  0  0
    4.8567   -9.4527    0.0000 C   0  0  0  0  0  0  0  0  0  0  0  0
    5.5712   -9.0402    0.0000 C   0  0  0  0  0  0  0  0  0  0  0  0
    5.5712   -8.2152    0.0000 O   0  0  0  0  0  0  0  0  0  0  0  0
    6.2856   -9.4527    0.0000 O   0  0  0  0  0  0  0  0  0  0  0  0
    7.0001   -9.0402    0.0000 C   0  0  0  0  0  0  0  0  0  0  0  0
    7.7146   -9.4527    0.0000 C   0  0  0  0  0  0  0  0  0  0  0  0
    7.7146  -10.2777    0.0000 O   0  0  0  0  0  0  0  0  0  0  0  0
    8.4291   -9.0402    0.0000 C   0  0  0  0  0  0  0  0  0  0  0  0
    8.5153   -8.2197    0.0000 O   0  0  0  0  0  0  0  0  0  0  0  0
    9.3223   -8.0482    0.0000 C   0  0  0  0  0  0  0  0  0  0  0  0
    9.7348   -8.7627    0.0000 C   0  0  0  0  0  0  0  0  0  0  0  0
   10.5552   -8.8489    0.0000 O   0  0  0  0  0  0  0  0  0  0  0  0
    9.1827   -9.3757    0.0000 C   0  0  0  0  0  0  0  0  0  0  0  0
    9.3543  -10.1827    0.0000 O   0  0  0  0  0  0  0  0  0  0  0  0
  1  2  1  0
  2  3  1  0
  3  4  1  0
  4  5  1  0
  5  6  1  0
  6  7  1  0
  7  8  1  0
  8  9  1  0
  9 10  1  0
 10 11  1  0
 11 12  1  0
 12 13  2  0
 12 14  1  0
 14 15  1  0
 15 16  1  0
 16 17  1  0
 16 18  1  0
 18 19  1  0
 19 20  1  0
 20 21  1  0
 21 22  1  0
 21 23  1  0
 18 23  1  0
 23 24  1  0
M  END
>  <name>  (539) 
(2R)-2-[(2R,3R,4S)-3,4-dihydroxyoxolan-2-yl]-2-hydroxyethyl dodecanoate

>  <Outcome>  (539) 
0

>  <SMILES>  (539) 
CCCCCCCCCCCC(=O)OCC(O)C1OCC(O)C1O

$$$$

     RDKit          2D

 14 13  0  0  0  0  0  0  0  0999 V2000
    0.8250   -3.3000    0.0000 F   0  0  0  0  0  0  0  0  0  0  0  0
    0.8250   -2.4750    0.0000 C   0  0  0  0  0  0  0  0  0  0  0  0
    1.6500   -2.4750    0.0000 F   0  0  0  0  0  0  0  0  0  0  0  0
    0.0000   -2.4750    0.0000 I   0  0  0  0  0  0  0  0  0  0  0  0
    0.8250   -1.6500    0.0000 C   0  0  0  0  0  0  0  0  0  0  0  0
    1.6500   -1.6500    0.0000 F   0  0  0  0  0  0  0  0  0  0  0  0
    0.0000   -1.6500    0.0000 F   0  0  0  0  0  0  0  0  0  0  0  0
    0.8250   -0.8250    0.0000 C   0  0  0  0  0  0  0  0  0  0  0  0
    1.6500   -0.8250    0.0000 F   0  0  0  0  0  0  0  0  0  0  0  0
    0.0000   -0.8250    0.0000 F   0  0  0  0  0  0  0  0  0  0  0  0
    0.8250    0.0000    0.0000 C   0  0  0  0  0  0  0  0  0  0  0  0
    0.8250    0.8250    0.0000 F   0  0  0  0  0  0  0  0  0  0  0  0
    1.6500    0.0000    0.0000 F   0  0  0  0  0  0  0  0  0  0  0  0
    0.0000    0.0000    0.0000 I   0  0  0  0  0  0  0  0  0  0  0  0
  1  2  1  0
  2  3  1  0
  2  4  1  0
  2  5  1  0
  5  6  1  0
  5  7  1  0
  5  8  1  0
  8  9  1  0
  8 10  1  0
  8 11  1  0
 11 12  1  0
 11 13  1  0
 11 14  1  0
M  END
>  <name>  (540) 
1,1,2,2,3,3,4,4-octafluoro-1,4-diiodobutane

>  <Outcome>  (540) 
0

>  <SMILES>  (540) 
FC(F)(I)C(F)(F)C(F)(F)C(F)(F)I

$$$$

     RDKit          2D

  5  4  0  0  0  0  0  0  0  0999 V2000
    2.0599   -0.7189    0.0000 O   0  0  0  0  0  0  0  0  0  0  0  0
    1.2349   -0.7189    0.0000 C   0  0  0  0  0  0  0  0  0  0  0  0
    0.8224   -1.4333    0.0000 Cl  0  0  0  0  0  0  0  0  0  0  0  0
    0.8224   -0.0044    0.0000 C   0  0  0  0  0  0  0  0  0  0  0  0
   -0.0026   -0.0044    0.0000 Cl  0  0  0  0  0  0  0  0  0  0  0  0
  1  2  2  0
  2  3  1  0
  2  4  1  0
  4  5  1  0
M  END
>  <name>  (541) 
chloroacetyl chloride

>  <Outcome>  (541) 
1

>  <SMILES>  (541) 
O=C(Cl)CCl

$$$$

     RDKit          2D

 14 14  0  0  0  0  0  0  0  0999 V2000
    3.0000    0.0000    0.0000 C   0  0  0  0  0  0  0  0  0  0  0  0
    4.5000    0.0000    0.0000 N   0  0  0  0  0  0  0  0  0  0  0  0
    1.5000    0.0000    0.0000 C   0  0  0  0  0  0  0  0  0  0  0  0
    0.7500   -1.2990    0.0000 C   0  0  0  0  0  0  0  0  0  0  0  0
   -0.7500   -1.2990    0.0000 C   0  0  0  0  0  0  0  0  0  0  0  0
   -1.5000    0.0000    0.0000 C   0  0  0  0  0  0  0  0  0  0  0  0
   -0.7500    1.2990    0.0000 C   0  0  0  0  0  0  0  0  0  0  0  0
    0.7500    1.2990    0.0000 C   0  0  0  0  0  0  0  0  0  0  0  0
    1.5000    2.5981    0.0000 Cl  0  0  0  0  0  0  0  0  0  0  0  0
   -1.5000    2.5981    0.0000 Cl  0  0  0  0  0  0  0  0  0  0  0  0
   -3.0000    0.0000    0.0000 Cl  0  0  0  0  0  0  0  0  0  0  0  0
   -1.5000   -2.5981    0.0000 C   0  0  0  0  0  0  0  0  0  0  0  0
   -2.2500   -3.8971    0.0000 N   0  0  0  0  0  0  0  0  0  0  0  0
    1.5000   -2.5981    0.0000 Cl  0  0  0  0  0  0  0  0  0  0  0  0
  1  2  3  0
  1  3  1  0
  3  4  2  0
  4  5  1  0
  5  6  2  0
  6  7  1  0
  7  8  2  0
  8  9  1  0
  7 10  1  0
  6 11  1  0
  5 12  1  0
 12 13  3  0
  4 14  1  0
  8  3  1  0
M  END
>  <name>  (542) 
2,4,5,6-tetrachlorobenzene-1,3-dicarbonitrile

>  <Outcome>  (542) 
2

>  <SMILES>  (542) 
N#Cc1c(Cl)c(Cl)c(Cl)c(C#N)c1Cl

$$$$

     RDKit          2D

  8  8  0  0  0  0  0  0  0  0999 V2000
    2.8040   -0.0846    0.0000 O   0  0  0  0  0  0  0  0  0  0  0  0
    1.9997    0.0989    0.0000 C   0  0  0  0  0  0  0  0  0  0  0  0
    1.4853   -0.5461    0.0000 C   0  0  0  0  0  0  0  0  0  0  0  0
    0.6603   -0.5461    0.0000 C   0  0  0  0  0  0  0  0  0  0  0  0
    0.1459    0.0989    0.0000 C   0  0  0  0  0  0  0  0  0  0  0  0
    0.3295    0.9033    0.0000 C   0  0  0  0  0  0  0  0  0  0  0  0
    1.0728    1.2612    0.0000 C   0  0  0  0  0  0  0  0  0  0  0  0
    1.8161    0.9033    0.0000 N   0  0  0  0  0  0  0  0  0  0  0  0
  1  2  2  0
  2  3  1  0
  3  4  1  0
  4  5  1  0
  5  6  1  0
  6  7  1  0
  7  8  1  0
  2  8  1  0
M  END
>  <name>  (543) 
azepan-2-one

>  <Outcome>  (543) 
0

>  <SMILES>  (543) 
O=C1CCCCCN1

$$$$

     RDKit          2D

  6  5  0  0  0  0  0  0  0  0999 V2000
    0.0000    0.0000    0.0000 C   0  0  0  0  0  0  0  0  0  0  0  0
    1.2990    0.7500    0.0000 C   0  0  0  0  0  0  0  0  0  0  0  0
    2.5981   -0.0000    0.0000 Si  0  0  0  0  0  4  0  0  0  0  0  0
    3.8971   -0.7500    0.0000 Cl  0  0  0  0  0  0  0  0  0  0  0  0
    3.3481    1.2990    0.0000 Cl  0  0  0  0  0  0  0  0  0  0  0  0
    1.8481   -1.2990    0.0000 Cl  0  0  0  0  0  0  0  0  0  0  0  0
  1  2  1  0
  2  3  1  0
  3  4  1  0
  3  5  1  0
  3  6  1  0
M  END
>  <name>  (544) 
trichloro(ethyl)silane

>  <Outcome>  (544) 
2

>  <SMILES>  (544) 
CC[Si](Cl)(Cl)Cl

$$$$

     RDKit          2D

 13  6  0  0  0  0  0  0  0  0999 V2000
    0.0000    0.0000    0.0000 C   0  0  0  0  0  0  0  0  0  0  0  0
   -0.0000   -1.5000    0.0000 O   0  0  0  0  0  0  0  0  0  0  0  0
    1.2990    0.7500    0.0000 O   0  0  0  0  0  1  0  0  0  0  0  0
   -1.2990    0.7500    0.0000 O   0  0  0  0  0  1  0  0  0  0  0  0
    0.0000    3.2500    0.0000 C   0  0  0  0  0  0  0  0  0  0  0  0
   -0.0000    1.7500    0.0000 O   0  0  0  0  0  0  0  0  0  0  0  0
    1.2990    4.0000    0.0000 O   0  0  0  0  0  1  0  0  0  0  0  0
   -1.2990    4.0000    0.0000 O   0  0  0  0  0  1  0  0  0  0  0  0
    2.2990    0.0000    0.0000 O   0  0  0  0  0  1  0  0  0  0  0  0
    3.2990    0.0000    0.0000 O   0  0  0  0  0  1  0  0  0  0  0  0
    4.2990    0.0000    0.0000 Pb  0  0  0  0  0 15  0  0  0  0  0  0
    0.0000    5.0000    0.0000 Pb  0  0  0  0  0 15  0  0  0  0  0  0
    5.2990    0.0000    0.0000 Pb  0  0  0  0  0 15  0  0  0  0  0  0
  1  2  2  0
  1  3  1  0
  1  4  1  0
  5  6  2  0
  5  7  1  0
  5  8  1  0
M  CHG  8   3  -1   4  -1   7  -1   8  -1   9  -1  10  -1  11   2  12   2
M  CHG  1  13   2
M  END
>  <name>  (545) 
lead(2+);dicarbonate;dihydroxide

>  <Outcome>  (545) 
2

>  <SMILES>  (545) 
O=C([O-])[O-].O=C([O-])[O-].[OH-].[OH-].[Pb+2].[Pb+2].[Pb+2]

$$$$

     RDKit          2D

 13 13  0  0  0  0  0  0  0  0999 V2000
    1.3611    1.0782    0.0000 C   0  0  0  0  0  0  0  0  0  0  0  0
    0.6466    0.6657    0.0000 C   0  0  0  0  0  0  0  0  0  0  0  0
   -0.0678    1.0782    0.0000 C   0  0  0  0  0  0  0  0  0  0  0  0
   -0.7823    0.6657    0.0000 C   0  0  0  0  0  0  0  0  0  0  0  0
   -0.7823   -0.1593    0.0000 C   0  0  0  0  0  0  0  0  0  0  0  0
   -0.0678   -0.5718    0.0000 C   0  0  0  0  0  0  0  0  0  0  0  0
    0.6466   -0.1593    0.0000 C   0  0  0  0  0  0  0  0  0  0  0  0
    1.3611   -0.5718    0.0000 N   0  0  0  0  0  0  0  0  0  0  0  0
    2.0756   -0.1593    0.0000 O   0  0  0  0  0  0  0  0  0  0  0  0
    1.3611   -1.3968    0.0000 O   0  0  0  0  0  0  0  0  0  0  0  0
   -1.4968   -0.5718    0.0000 N   0  0  0  0  0  0  0  0  0  0  0  0
   -1.4968   -1.3968    0.0000 O   0  0  0  0  0  0  0  0  0  0  0  0
   -2.2112   -0.1593    0.0000 O   0  0  0  0  0  0  0  0  0  0  0  0
  1  2  1  0
  3  2  2  0
  4  3  1  0
  5  4  2  0
  6  5  1  0
  7  6  2  0
  7  8  1  0
  8  9  1  0
  8 10  2  0
  5 11  1  0
 11 12  1  0
 11 13  2  0
  2  7  1  0
M  CHG  4   8   1   9  -1  11   1  12  -1
M  END
>  <name>  (546) 
Dinitrotoluene

>  <Outcome>  (546) 
1

>  <SMILES>  (546) 
Cc1ccc([N+](=O)[O-])cc1[N+](=O)[O-]

$$$$

     RDKit          2D

  8  8  0  0  0  0  0  0  0  0999 V2000
   -0.0019    2.4738    0.0000 O   0  0  0  0  0  0  0  0  0  0  0  0
    0.7125    2.0613    0.0000 C   0  0  0  0  0  0  0  0  0  0  0  0
    0.7125    1.2363    0.0000 C   0  0  0  0  0  0  0  0  0  0  0  0
    1.4270    0.8238    0.0000 C   0  0  0  0  0  0  0  0  0  0  0  0
    1.4270   -0.0012    0.0000 C   0  0  0  0  0  0  0  0  0  0  0  0
    0.7125   -0.4137    0.0000 C   0  0  0  0  0  0  0  0  0  0  0  0
   -0.0019   -0.0012    0.0000 C   0  0  0  0  0  0  0  0  0  0  0  0
   -0.0019    0.8238    0.0000 C   0  0  0  0  0  0  0  0  0  0  0  0
  1  2  1  0
  2  3  1  0
  3  4  2  0
  4  5  1  0
  5  6  2  0
  6  7  1  0
  7  8  2  0
  3  8  1  0
M  END
>  <name>  (547) 
phenylmethanol

>  <Outcome>  (547) 
0

>  <SMILES>  (547) 
OCc1ccccc1

$$$$

     RDKit          2D

 10  9  0  0  0  0  0  0  0  0999 V2000
    2.2836    2.1434    0.0000 C   0  0  0  0  0  0  0  0  0  0  0  0
    2.9980    2.5559    0.0000 C   0  0  0  0  0  0  0  0  0  0  0  0
    3.7125    2.1434    0.0000 C   0  0  0  0  0  0  0  0  0  0  0  0
    4.4270    2.5559    0.0000 C   0  0  0  0  0  0  0  0  0  0  0  0
    5.1414    2.1434    0.0000 C   0  0  0  0  0  0  0  0  0  0  0  0
    5.8559    2.5559    0.0000 C   0  0  0  0  0  0  0  0  0  0  0  0
    6.5704    2.1434    0.0000 C   0  0  0  0  0  0  0  0  0  0  0  0
    7.2849    2.5559    0.0000 C   0  0  0  0  0  0  0  0  0  0  0  0
    7.9993    2.1434    0.0000 C   0  0  0  0  0  0  0  0  0  0  0  0
    8.7138    2.5559    0.0000 C   0  0  0  0  0  0  0  0  0  0  0  0
  1  2  1  0
  2  3  1  0
  3  4  1  0
  4  5  1  0
  5  6  1  0
  6  7  1  0
  7  8  1  0
  8  9  1  0
  9 10  1  0
M  END
>  <name>  (548) 
decane

>  <Outcome>  (548) 
0

>  <SMILES>  (548) 
CCCCCCCCCC

$$$$

     RDKit          2D

 14 14  0  0  0  0  0  0  0  0999 V2000
   -0.7145    2.8875    0.0000 O   0  0  0  0  0  0  0  0  0  0  0  0
   -0.0000    2.4750    0.0000 C   0  0  0  0  0  0  0  0  0  0  0  0
    0.7145    2.0625    0.0000 N   0  0  0  0  0  0  0  0  0  0  0  0
    0.7145    1.2375    0.0000 C   0  0  0  0  0  0  0  0  0  0  0  0
    1.4289    0.8250    0.0000 C   0  0  0  0  0  0  0  0  0  0  0  0
    1.4289   -0.0000    0.0000 C   0  0  0  0  0  0  0  0  0  0  0  0
    0.7145   -0.4125    0.0000 C   0  0  0  0  0  0  0  0  0  0  0  0
    0.7145   -1.2375    0.0000 O   0  0  0  0  0  0  0  0  0  0  0  0
    1.4289   -1.6500    0.0000 C   0  0  0  0  0  0  0  0  0  0  0  0
    2.1434   -2.0625    0.0000 F   0  0  0  0  0  0  0  0  0  0  0  0
    1.0164   -2.3645    0.0000 F   0  0  0  0  0  0  0  0  0  0  0  0
    1.8414   -0.9355    0.0000 F   0  0  0  0  0  0  0  0  0  0  0  0
   -0.0000    0.0000    0.0000 C   0  0  0  0  0  0  0  0  0  0  0  0
   -0.0000    0.8250    0.0000 C   0  0  0  0  0  0  0  0  0  0  0  0
  1  2  2  0
  2  3  2  0
  3  4  1  0
  4  5  2  0
  5  6  1  0
  6  7  2  0
  7  8  1  0
  8  9  1  0
  9 10  1  0
  9 11  1  0
  9 12  1  0
  7 13  1  0
 13 14  2  0
  4 14  1  0
M  END
>  <name>  (549) 
1-isocyanato-4-(trifluoromethoxy)benzene

>  <Outcome>  (549) 
1

>  <SMILES>  (549) 
O=C=Nc1ccc(OC(F)(F)F)cc1

$$$$

     RDKit          2D

  8  8  0  0  0  0  0  0  0  0999 V2000
    1.4805    0.6325    0.0000 C   0  0  0  0  0  0  0  0  0  0  0  0
    0.7661    0.2200    0.0000 C   0  0  0  0  0  0  0  0  0  0  0  0
    0.0516    0.6325    0.0000 C   0  0  0  0  0  0  0  0  0  0  0  0
   -0.6629    0.2200    0.0000 C   0  0  0  0  0  0  0  0  0  0  0  0
   -0.6629   -0.6050    0.0000 C   0  0  0  0  0  0  0  0  0  0  0  0
    0.0516   -1.0175    0.0000 C   0  0  0  0  0  0  0  0  0  0  0  0
    0.7661   -0.6050    0.0000 C   0  0  0  0  0  0  0  0  0  0  0  0
    1.4805   -1.0175    0.0000 Cl  0  0  0  0  0  0  0  0  0  0  0  0
  1  2  1  0
  3  2  2  0
  4  3  1  0
  5  4  2  0
  6  5  1  0
  7  6  2  0
  7  8  1  0
  2  7  1  0
M  END
>  <name>  (550) 
2-Chlorotoluene

>  <Outcome>  (550) 
0

>  <SMILES>  (550) 
Cc1ccccc1Cl

$$$$

     RDKit          2D

 14 14  0  0  0  0  0  0  0  0999 V2000
    3.0000    0.0000    0.0000 C   0  0  0  0  0  0  0  0  0  0  0  0
    1.5000    0.0000    0.0000 C   0  0  0  0  0  0  0  0  0  0  0  0
    0.7500   -1.2990    0.0000 C   0  0  0  0  0  0  0  0  0  0  0  0
   -0.7500   -1.2990    0.0000 C   0  0  0  0  0  0  0  0  0  0  0  0
   -1.5000    0.0000    0.0000 C   0  0  0  0  0  0  0  0  0  0  0  0
   -0.7500    1.2990    0.0000 C   0  0  0  0  0  0  0  0  0  0  0  0
    0.7500    1.2990    0.0000 C   0  0  0  0  0  0  0  0  0  0  0  0
   -3.0000    0.0000    0.0000 S   0  0  0  0  0  0  0  0  0  0  0  0
   -3.0000   -1.5000    0.0000 O   0  0  0  0  0  0  0  0  0  0  0  0
   -3.0000    1.5000    0.0000 O   0  0  0  0  0  0  0  0  0  0  0  0
   -4.5000    0.0000    0.0000 C   0  0  0  0  0  0  0  0  0  0  0  0
    1.5000   -2.5981    0.0000 N   0  0  0  0  0  4  0  0  0  0  0  0
    3.0000   -2.5981    0.0000 O   0  0  0  0  0  0  0  0  0  0  0  0
    0.7500   -3.8971    0.0000 O   0  0  0  0  0  1  0  0  0  0  0  0
  1  2  1  0
  2  3  2  0
  3  4  1  0
  4  5  2  0
  5  6  1  0
  6  7  2  0
  5  8  1  0
  8  9  2  0
  8 10  2  0
  8 11  1  0
  3 12  1  0
 12 13  2  0
 12 14  1  0
  7  2  1  0
M  CHG  2  12   1  14  -1
M  END
>  <name>  (551) 
1-methyl-4-methylsulfonyl-2-nitrobenzene

>  <Outcome>  (551) 
2

>  <SMILES>  (551) 
Cc1ccc(S(C)(=O)=O)cc1[N+](=O)[O-]

$$$$

     RDKit          2D

 25 22  0  0  0  0  0  0  0  0999 V2000
    0.0000    0.0000    0.0000 C   0  0  0  0  0  0  0  0  0  0  0  0
    1.2990    0.7500    0.0000 C   0  0  0  0  0  0  0  0  0  0  0  0
    2.5981   -0.0000    0.0000 C   0  0  0  0  0  0  0  0  0  0  0  0
    1.2990    2.2500    0.0000 C   0  0  0  0  0  0  0  0  0  0  0  0
    2.5981    3.0000    0.0000 C   0  0  0  0  0  0  0  0  0  0  0  0
    2.5981    4.5000    0.0000 C   0  0  0  0  0  0  0  0  0  0  0  0
    3.8971    5.2500    0.0000 C   0  0  0  0  0  0  0  0  0  0  0  0
    3.8971    6.7500    0.0000 C   0  0  0  0  0  0  0  0  0  0  0  0
    5.1962    7.5000    0.0000 C   0  0  0  0  0  0  0  0  0  0  0  0
    5.1962    9.0000    0.0000 C   0  0  0  0  0  0  0  0  0  0  0  0
    3.8971    9.7500    0.0000 O   0  0  0  0  0  0  0  0  0  0  0  0
    6.4952    9.7500    0.0000 O   0  0  0  0  0  1  0  0  0  0  0  0
    7.4952    0.0000    0.0000 C   0  0  0  0  0  0  0  0  0  0  0  0
    8.7942    0.7500    0.0000 C   0  0  0  0  0  0  0  0  0  0  0  0
   10.0933   -0.0000    0.0000 C   0  0  0  0  0  0  0  0  0  0  0  0
    8.7942    2.2500    0.0000 C   0  0  0  0  0  0  0  0  0  0  0  0
   10.0933    3.0000    0.0000 C   0  0  0  0  0  0  0  0  0  0  0  0
   10.0933    4.5000    0.0000 C   0  0  0  0  0  0  0  0  0  0  0  0
   11.3923    5.2500    0.0000 C   0  0  0  0  0  0  0  0  0  0  0  0
   11.3923    6.7500    0.0000 C   0  0  0  0  0  0  0  0  0  0  0  0
   12.6913    7.5000    0.0000 C   0  0  0  0  0  0  0  0  0  0  0  0
   12.6913    9.0000    0.0000 C   0  0  0  0  0  0  0  0  0  0  0  0
   11.3923    9.7500    0.0000 O   0  0  0  0  0  0  0  0  0  0  0  0
   13.9904    9.7500    0.0000 O   0  0  0  0  0  1  0  0  0  0  0  0
    0.0000   10.7500    0.0000 Ni  0  0  0  0  0 15  0  0  0  0  0  0
  1  2  1  0
  2  3  1  0
  2  4  1  0
  4  5  1  0
  5  6  1  0
  6  7  1  0
  7  8  1  0
  8  9  1  0
  9 10  1  0
 10 11  2  0
 10 12  1  0
 13 14  1  0
 14 15  1  0
 14 16  1  0
 16 17  1  0
 17 18  1  0
 18 19  1  0
 19 20  1  0
 20 21  1  0
 21 22  1  0
 22 23  2  0
 22 24  1  0
M  CHG  3  12  -1  24  -1  25   2
M  END
>  <name>  (552) 
8-methylnonanoate;nickel(2+)

>  <Outcome>  (552) 
2

>  <SMILES>  (552) 
CC(C)CCCCCCC(=O)[O-].CC(C)CCCCCCC(=O)[O-].[Ni+2]

$$$$

     RDKit          2D

 26 30  0  0  0  0  0  0  0  0999 V2000
    1.5000    0.0000    0.0000 C   0  0  0  0  0  0  0  0  0  0  0  0
    0.7500   -1.2990    0.0000 C   0  0  0  0  0  0  0  0  0  0  0  0
   -0.7500   -1.2990    0.0000 C   0  0  0  0  0  0  0  0  0  0  0  0
   -1.5000    0.0000    0.0000 C   0  0  0  0  0  0  0  0  0  0  0  0
   -0.7500    1.2990    0.0000 C   0  0  0  0  0  0  0  0  0  0  0  0
    0.7500    1.2990    0.0000 C   0  0  0  0  0  0  0  0  0  0  0  0
    1.5000    2.5981    0.0000 Cl  0  0  0  0  0  0  0  0  0  0  0  0
   -3.0000    0.0000    0.0000 C   0  0  0  0  0  0  0  0  0  0  0  0
   -3.7500    1.2990    0.0000 O   0  0  0  0  0  0  0  0  0  0  0  0
   -3.7500   -1.2990    0.0000 C   0  0  0  0  0  0  0  0  0  0  0  0
   -5.2500   -1.2990    0.0000 C   0  0  0  0  0  0  0  0  0  0  0  0
   -6.0000   -2.5981    0.0000 C   0  0  0  0  0  0  0  0  0  0  0  0
   -5.2500   -3.8971    0.0000 C   0  0  0  0  0  0  0  0  0  0  0  0
   -3.7500   -3.8971    0.0000 C   0  0  0  0  0  0  0  0  0  0  0  0
   -3.0000   -2.5981    0.0000 C   0  0  0  0  0  0  0  0  0  0  0  0
   -1.5000   -2.5981    0.0000 N   0  0  0  0  0  0  0  0  0  0  0  0
   -6.0000   -5.1962    0.0000 C   0  0  0  0  0  0  0  0  0  0  0  0
   -5.2500   -6.4952    0.0000 O   0  0  0  0  0  0  0  0  0  0  0  0
   -7.5000   -5.1962    0.0000 C   0  0  0  0  0  0  0  0  0  0  0  0
   -8.2500   -3.8971    0.0000 C   0  0  0  0  0  0  0  0  0  0  0  0
   -7.5000   -2.5981    0.0000 N   0  0  0  0  0  0  0  0  0  0  0  0
   -9.7500   -3.8971    0.0000 C   0  0  0  0  0  0  0  0  0  0  0  0
  -10.5000   -5.1962    0.0000 C   0  0  0  0  0  0  0  0  0  0  0  0
   -9.7500   -6.4952    0.0000 C   0  0  0  0  0  0  0  0  0  0  0  0
   -8.2500   -6.4952    0.0000 C   0  0  0  0  0  0  0  0  0  0  0  0
  -10.5000   -7.7942    0.0000 Cl  0  0  0  0  0  0  0  0  0  0  0  0
  1  2  2  0
  2  3  1  0
  3  4  2  0
  4  5  1  0
  5  6  2  0
  6  7  1  0
  4  8  1  0
  8  9  2  0
  8 10  1  0
 10 11  2  0
 11 12  1  0
 12 13  2  0
 13 14  1  0
 14 15  2  0
 15 16  1  0
 13 17  1  0
 17 18  2  0
 17 19  1  0
 19 20  2  0
 20 21  1  0
 20 22  1  0
 22 23  2  0
 23 24  1  0
 24 25  2  0
 24 26  1  0
  6  1  1  0
 16  3  1  0
 15 10  1  0
 21 12  1  0
 25 19  1  0
M  END
>  <name>  (553) 
2,9-dichloro-5,12-dihydroquinolino[2,3-b]acridine-7,14-dione

>  <Outcome>  (553) 
2

>  <SMILES>  (553) 
O=c1c2cc(Cl)ccc2[nH]c2cc3c(=O)c4cc(Cl)ccc4[nH]c3cc12

$$$$

     RDKit          2D

 20 19  0  0  0  0  0  0  0  0999 V2000
    2.8458    2.2090    0.0000 O   0  0  0  0  0  0  0  0  0  0  0  0
    2.4333    1.4945    0.0000 P   0  0  0  0  0  0  0  0  0  0  0  0
    1.7188    1.9070    0.0000 O   0  0  0  0  0  0  0  0  0  0  0  0
    1.7188    2.7320    0.0000 C   0  0  0  0  0  0  0  0  0  0  0  0
    2.4333    3.1445    0.0000 C   0  0  0  0  0  0  0  0  0  0  0  0
    2.4333    3.9695    0.0000 Cl  0  0  0  0  0  0  0  0  0  0  0  0
    1.0043    3.1445    0.0000 C   0  0  0  0  0  0  0  0  0  0  0  0
    1.0043    3.9695    0.0000 Cl  0  0  0  0  0  0  0  0  0  0  0  0
    3.1477    1.0820    0.0000 O   0  0  0  0  0  0  0  0  0  0  0  0
    3.8622    1.4945    0.0000 C   0  0  0  0  0  0  0  0  0  0  0  0
    4.5767    1.0820    0.0000 C   0  0  0  0  0  0  0  0  0  0  0  0
    5.2912    1.4945    0.0000 Cl  0  0  0  0  0  0  0  0  0  0  0  0
    3.8622    2.3195    0.0000 C   0  0  0  0  0  0  0  0  0  0  0  0
    4.5767    2.7320    0.0000 Cl  0  0  0  0  0  0  0  0  0  0  0  0
    2.0208    0.7800    0.0000 O   0  0  0  0  0  0  0  0  0  0  0  0
    1.1958    0.7800    0.0000 C   0  0  0  0  0  0  0  0  0  0  0  0
    0.7833    1.4945    0.0000 C   0  0  0  0  0  0  0  0  0  0  0  0
    1.1958    2.2090    0.0000 Cl  0  0  0  0  0  0  0  0  0  0  0  0
    0.7833    0.0656    0.0000 C   0  0  0  0  0  0  0  0  0  0  0  0
   -0.0417    0.0656    0.0000 Cl  0  0  0  0  0  0  0  0  0  0  0  0
  1  2  2  0
  2  3  1  0
  3  4  1  0
  4  5  1  0
  5  6  1  0
  4  7  1  0
  7  8  1  0
  2  9  1  0
  9 10  1  0
 10 11  1  0
 11 12  1  0
 10 13  1  0
 13 14  1  0
  2 15  1  0
 15 16  1  0
 16 17  1  0
 17 18  1  0
 16 19  1  0
 19 20  1  0
M  END
>  <name>  (554) 
tris(1,3-dichloropropan-2-yl) phosphate

>  <Outcome>  (554) 
0

>  <SMILES>  (554) 
O=P(OC(CCl)CCl)(OC(CCl)CCl)OC(CCl)CCl

$$$$

     RDKit          2D

  8  7  0  0  0  0  0  0  0  0999 V2000
    1.1974    0.8515    0.0000 C   0  0  0  0  0  0  0  0  0  0  0  0
    1.1974    0.0265    0.0000 C   0  0  0  0  0  0  0  0  0  0  0  0
    1.1974   -0.7985    0.0000 C   0  0  0  0  0  0  0  0  0  0  0  0
    1.9119   -1.2110    0.0000 N   0  0  0  0  0  0  0  0  0  0  0  0
    1.9119   -2.0360    0.0000 C   0  0  0  0  0  0  0  0  0  0  0  0
    2.6263   -2.4485    0.0000 C   0  0  0  0  0  0  0  0  0  0  0  0
    2.6263   -0.7985    0.0000 C   0  0  0  0  0  0  0  0  0  0  0  0
    3.3408   -1.2110    0.0000 C   0  0  0  0  0  0  0  0  0  0  0  0
  1  2  3  0
  2  3  1  0
  3  4  1  0
  4  5  1  0
  5  6  1  0
  4  7  1  0
  7  8  1  0
M  END
>  <name>  (555) 
diethyl(prop-2-yn-1-yl)amine

>  <Outcome>  (555) 
1

>  <SMILES>  (555) 
C#CCN(CC)CC

$$$$

     RDKit          2D

  9  8  0  0  0  0  0  0  0  0999 V2000
    0.0000    0.0000    0.0000 C   0  0  0  0  0  0  0  0  0  0  0  0
    1.2990    0.7500    0.0000 C   0  0  0  0  0  0  0  0  0  0  0  0
    2.5981   -0.0000    0.0000 C   0  0  0  0  0  0  0  0  0  0  0  0
    3.8971    0.7500    0.0000 C   0  0  0  0  0  0  0  0  0  0  0  0
    5.1962   -0.0000    0.0000 C   0  0  0  0  0  0  0  0  0  0  0  0
    6.4952    0.7500    0.0000 C   0  0  0  0  0  0  0  0  0  0  0  0
    7.7942   -0.0000    0.0000 C   0  0  0  0  0  0  0  0  0  0  0  0
    7.7942   -1.5000    0.0000 O   0  0  0  0  0  0  0  0  0  0  0  0
    9.0933    0.7500    0.0000 O   0  0  0  0  0  0  0  0  0  0  0  0
  1  2  1  0
  2  3  1  0
  3  4  1  0
  4  5  1  0
  5  6  1  0
  6  7  1  0
  7  8  2  0
  7  9  1  0
M  END
>  <name>  (556) 
heptanoic acid

>  <Outcome>  (556) 
2

>  <SMILES>  (556) 
CCCCCCC(=O)O

$$$$

     RDKit          2D

  7  6  0  0  0  0  0  0  0  0999 V2000
    0.0889   -2.2159    0.0000 C   0  0  0  0  0  0  0  0  0  0  0  0
    0.0889   -1.3909    0.0000 C   0  0  0  0  0  0  0  0  0  0  0  0
    0.8034   -0.9784    0.0000 C   0  0  0  0  0  0  0  0  0  0  0  0
    0.8034   -0.1534    0.0000 Si  0  0  0  0  0  4  0  0  0  0  0  0
    0.8034    0.6716    0.0000 O   0  0  0  0  0  0  0  0  0  0  0  0
    1.6284   -0.1534    0.0000 O   0  0  0  0  0  0  0  0  0  0  0  0
   -0.0216   -0.1534    0.0000 O   0  0  0  0  0  0  0  0  0  0  0  0
  1  2  1  0
  2  3  1  0
  3  4  1  0
  4  5  1  0
  4  6  1  0
  4  7  1  0
M  END
>  <name>  (557) 
tripotassium propylsilanetris(olate)

>  <Outcome>  (557) 
0

>  <SMILES>  (557) 
CCC[Si](O)(O)O

$$$$

     RDKit          2D

 14 13  0  0  0  0  0  0  0  0999 V2000
    4.9100    0.3499    0.0000 C   0  0  0  0  0  0  0  0  0  0  0  0
    4.1955   -0.0626    0.0000 C   0  0  0  0  0  0  0  0  0  0  0  0
    3.4810    0.3499    0.0000 C   0  0  0  0  0  0  0  0  0  0  0  0
    3.8935    1.0643    0.0000 C   0  0  0  0  0  0  0  0  0  0  0  0
    3.0685   -0.3646    0.0000 O   0  0  0  0  0  0  0  0  0  0  0  0
    2.2435   -0.3646    0.0000 O   0  0  0  0  0  0  0  0  0  0  0  0
    2.7666    0.7624    0.0000 O   0  0  0  0  0  0  0  0  0  0  0  0
    2.0521    0.3499    0.0000 O   0  0  0  0  0  0  0  0  0  0  0  0
    1.3376    0.7624    0.0000 C   0  0  0  0  0  0  0  0  0  0  0  0
    1.7501    1.4768    0.0000 C   0  0  0  0  0  0  0  0  0  0  0  0
    0.6231    1.1749    0.0000 C   0  0  0  0  0  0  0  0  0  0  0  0
   -0.0913    0.7624    0.0000 C   0  0  0  0  0  0  0  0  0  0  0  0
    0.9251    0.0479    0.0000 O   0  0  0  0  0  0  0  0  0  0  0  0
    0.1001    0.0479    0.0000 O   0  0  0  0  0  0  0  0  0  0  0  0
  1  2  1  0
  2  3  1  0
  3  4  1  0
  3  5  1  0
  5  6  1  0
  3  7  1  0
  7  8  1  0
  8  9  1  0
  9 10  1  0
  9 11  1  0
 11 12  1  0
  9 13  1  0
 13 14  1  0
M  END
>  <name>  (558) 
unnamed [1338-23-4]

>  <Outcome>  (558) 
1

>  <SMILES>  (558) 
CCC(C)(OO)OOC(C)(CC)OO

$$$$

     RDKit          2D

 25 24  0  0  0  0  0  0  0  0999 V2000
    0.0000    0.0000    0.0000 C   0  0  0  0  0  0  0  0  0  0  0  0
    1.2990    0.7500    0.0000 C   0  0  0  0  0  0  0  0  0  0  0  0
    2.5981   -0.0000    0.0000 C   0  0  0  0  0  0  0  0  0  0  0  0
    3.8971    0.7500    0.0000 C   0  0  0  0  0  0  0  0  0  0  0  0
    5.1962   -0.0000    0.0000 C   0  0  0  0  0  0  0  0  0  0  0  0
    6.4952    0.7500    0.0000 C   0  0  0  0  0  0  0  0  0  0  0  0
    7.7942   -0.0000    0.0000 C   0  0  0  0  0  0  0  0  0  0  0  0
    9.0933    0.7500    0.0000 C   0  0  0  0  0  0  0  0  0  0  0  0
   10.3923   -0.0000    0.0000 Al  0  0  0  0  0  3  0  0  0  0  0  0
   11.6913    0.7500    0.0000 C   0  0  0  0  0  0  0  0  0  0  0  0
   12.9904   -0.0000    0.0000 C   0  0  0  0  0  0  0  0  0  0  0  0
   14.2894    0.7500    0.0000 C   0  0  0  0  0  0  0  0  0  0  0  0
   15.5885   -0.0000    0.0000 C   0  0  0  0  0  0  0  0  0  0  0  0
   16.8875    0.7500    0.0000 C   0  0  0  0  0  0  0  0  0  0  0  0
   18.1865   -0.0000    0.0000 C   0  0  0  0  0  0  0  0  0  0  0  0
   19.4856    0.7500    0.0000 C   0  0  0  0  0  0  0  0  0  0  0  0
   20.7846   -0.0000    0.0000 C   0  0  0  0  0  0  0  0  0  0  0  0
   10.3923   -1.5000    0.0000 C   0  0  0  0  0  0  0  0  0  0  0  0
   11.6913   -2.2500    0.0000 C   0  0  0  0  0  0  0  0  0  0  0  0
   11.6913   -3.7500    0.0000 C   0  0  0  0  0  0  0  0  0  0  0  0
   12.9904   -4.5000    0.0000 C   0  0  0  0  0  0  0  0  0  0  0  0
   12.9904   -6.0000    0.0000 C   0  0  0  0  0  0  0  0  0  0  0  0
   14.2894   -6.7500    0.0000 C   0  0  0  0  0  0  0  0  0  0  0  0
   14.2894   -8.2500    0.0000 C   0  0  0  0  0  0  0  0  0  0  0  0
   15.5885   -9.0000    0.0000 C   0  0  0  0  0  0  0  0  0  0  0  0
  1  2  1  0
  2  3  1  0
  3  4  1  0
  4  5  1  0
  5  6  1  0
  6  7  1  0
  7  8  1  0
  8  9  1  0
  9 10  1  0
 10 11  1  0
 11 12  1  0
 12 13  1  0
 13 14  1  0
 14 15  1  0
 15 16  1  0
 16 17  1  0
  9 18  1  0
 18 19  1  0
 19 20  1  0
 20 21  1  0
 21 22  1  0
 22 23  1  0
 23 24  1  0
 24 25  1  0
M  END
>  <name>  (559) 
trioctylalumane

>  <Outcome>  (559) 
2

>  <SMILES>  (559) 
CCCCCCCC[Al](CCCCCCCC)CCCCCCCC

$$$$

     RDKit          2D

 13 12  0  0  0  0  0  0  0  0999 V2000
    1.2375    0.7145    0.0000 F   0  0  0  0  0  0  0  0  0  0  0  0
    0.8250    0.0000    0.0000 C   0  0  0  0  0  0  0  0  0  0  0  0
    1.2375   -0.7145    0.0000 F   0  0  0  0  0  0  0  0  0  0  0  0
   -0.0000    0.0000    0.0000 C   0  0  0  0  0  0  0  0  0  0  0  0
   -0.4125    0.7145    0.0000 F   0  0  0  0  0  0  0  0  0  0  0  0
   -0.4125   -0.7145    0.0000 O   0  0  0  0  0  0  0  0  0  0  0  0
    0.0000   -1.4289    0.0000 C   0  0  0  0  0  0  0  0  0  0  0  0
   -0.7145   -1.8414    0.0000 F   0  0  0  0  0  0  0  0  0  0  0  0
    0.7145   -1.0164    0.0000 F   0  0  0  0  0  0  0  0  0  0  0  0
    0.4125   -2.1434    0.0000 C   0  0  0  0  0  0  0  0  0  0  0  0
    0.8250   -2.8579    0.0000 F   0  0  0  0  0  0  0  0  0  0  0  0
   -0.3020   -2.5559    0.0000 F   0  0  0  0  0  0  0  0  0  0  0  0
    1.1270   -1.7309    0.0000 F   0  0  0  0  0  0  0  0  0  0  0  0
  1  2  1  0
  2  3  1  0
  2  4  2  0
  4  5  1  0
  4  6  1  0
  6  7  1  0
  7  8  1  0
  7  9  1  0
  7 10  1  0
 10 11  1  0
 10 12  1  0
 10 13  1  0
M  END
>  <name>  (560) 
1,1,2-trifluoro-2-(pentafluoroethoxy)ethene

>  <Outcome>  (560) 
0

>  <SMILES>  (560) 
FC(F)=C(F)OC(F)(F)C(F)(F)F

$$$$

     RDKit          2D

  3  2  0  0  0  0  0  0  0  0999 V2000
    1.7205   -1.1975    0.0000 C   0  0  0  0  0  0  0  0  0  0  0  0
    1.3080   -0.4830    0.0000 C   0  0  0  0  0  0  0  0  0  0  0  0
    0.4830   -0.4830    0.0000 O   0  0  0  0  0  0  0  0  0  0  0  0
  1  2  1  0
  2  3  2  0
M  END
>  <name>  (561) 
acetaldehyde

>  <Outcome>  (561) 
0

>  <SMILES>  (561) 
CC=O

$$$$

     RDKit          2D

 19 20  0  0  0  0  0  0  0  0999 V2000
   -0.5367   -5.5123    0.0000 C   0  0  0  0  0  0  0  0  0  0  0  0
    0.8899   -5.9758    0.0000 C   0  0  0  0  0  0  0  0  0  0  0  0
    1.2018   -7.4430    0.0000 C   0  0  0  0  0  0  0  0  0  0  0  0
    2.0046   -4.9721    0.0000 C   0  0  0  0  0  0  0  0  0  0  0  0
    3.3037   -4.2221    0.0000 C   0  0  0  0  0  0  0  0  0  0  0  0
    4.6740   -4.8322    0.0000 O   0  0  0  0  0  0  0  0  0  0  0  0
    2.9918   -2.7549    0.0000 N   0  0  0  0  0  0  0  0  0  0  0  0
    1.5000   -2.5981    0.0000 C   0  0  0  0  0  0  0  0  0  0  0  0
    0.8899   -3.9684    0.0000 N   0  0  0  0  0  0  0  0  0  0  0  0
    0.7500   -1.2990    0.0000 C   0  0  0  0  0  0  0  0  0  0  0  0
    1.5000    0.0000    0.0000 C   0  0  0  0  0  0  0  0  0  0  0  0
    0.7500    1.2990    0.0000 C   0  0  0  0  0  0  0  0  0  0  0  0
   -0.7500    1.2990    0.0000 C   0  0  0  0  0  0  0  0  0  0  0  0
   -1.5000    0.0000    0.0000 C   0  0  0  0  0  0  0  0  0  0  0  0
   -0.7500   -1.2990    0.0000 N   0  0  0  0  0  0  0  0  0  0  0  0
    3.0000    0.0000    0.0000 C   0  0  0  0  0  0  0  0  0  0  0  0
    3.7500    1.2990    0.0000 O   0  0  0  0  0  0  0  0  0  0  0  0
    3.7500   -1.2990    0.0000 O   0  0  0  0  0  0  0  0  0  0  0  0
    2.8863   -6.1856    0.0000 C   0  0  0  0  0  0  0  0  0  0  0  0
  1  2  1  0
  2  3  1  0
  2  4  1  0
  4  5  1  0
  5  6  2  0
  5  7  1  0
  7  8  1  0
  8  9  2  0
  8 10  1  0
 10 11  2  0
 11 12  1  0
 12 13  2  0
 13 14  1  0
 14 15  2  0
 11 16  1  0
 16 17  2  0
 16 18  1  0
  4 19  1  0
  9  4  1  0
 15 10  1  0
M  END
>  <name>  (562) 
2-(4-methyl-5-oxo-4-propan-2-yl-1H-imidazol-2-yl)pyridine-3-carboxylic acid

>  <Outcome>  (562) 
2

>  <SMILES>  (562) 
CC(C)C1(C)N=C(c2ncccc2C(=O)O)NC1=O

$$$$

     RDKit          2D

  5  4  0  0  0  0  0  0  0  0999 V2000
    2.1837   -0.6993    0.0000 C   0  0  0  0  0  0  0  0  0  0  0  0
    1.3587   -0.6993    0.0000 C   0  0  0  0  0  0  0  0  0  0  0  0
    0.9462   -1.4137    0.0000 C   0  0  0  0  0  0  0  0  0  0  0  0
    0.9462    0.0152    0.0000 C   0  0  0  0  0  0  0  0  0  0  0  0
    0.1212    0.0152    0.0000 O   0  0  0  0  0  0  0  0  0  0  0  0
  1  2  1  0
  2  3  1  0
  2  4  1  0
  4  5  1  0
M  END
>  <name>  (563) 
2-methylpropan-1-ol

>  <Outcome>  (563) 
0

>  <SMILES>  (563) 
CC(C)CO

$$$$

     RDKit          2D

 13 12  0  0  0  0  0  0  0  0999 V2000
    5.2698    5.5637    0.0000 C   0  0  0  0  0  0  0  0  0  0  0  0
    4.5553    5.1512    0.0000 C   0  0  0  0  0  0  0  0  0  0  0  0
    4.5553    4.3262    0.0000 C   0  0  0  0  0  0  0  0  0  0  0  0
    3.8409    3.9137    0.0000 C   0  0  0  0  0  0  0  0  0  0  0  0
    3.8409    3.0887    0.0000 N   0  0  0  0  0  0  0  0  0  0  0  0
    3.1264    2.6762    0.0000 C   0  0  0  0  0  0  0  0  0  0  0  0
    3.1264    1.8512    0.0000 C   0  0  0  0  0  0  0  0  0  0  0  0
    2.4119    1.4387    0.0000 C   0  0  0  0  0  0  0  0  0  0  0  0
    2.4119    0.6137    0.0000 C   0  0  0  0  0  0  0  0  0  0  0  0
    4.5553    2.6762    0.0000 C   0  0  0  0  0  0  0  0  0  0  0  0
    4.5553    1.8512    0.0000 C   0  0  0  0  0  0  0  0  0  0  0  0
    5.2698    1.4387    0.0000 C   0  0  0  0  0  0  0  0  0  0  0  0
    5.2698    0.6137    0.0000 C   0  0  0  0  0  0  0  0  0  0  0  0
  1  2  1  0
  2  3  1  0
  3  4  1  0
  4  5  1  0
  5  6  1  0
  6  7  1  0
  7  8  1  0
  8  9  1  0
  5 10  1  0
 10 11  1  0
 11 12  1  0
 12 13  1  0
M  END
>  <name>  (564) 
tributylamine

>  <Outcome>  (564) 
1

>  <SMILES>  (564) 
CCCCN(CCCC)CCCC

$$$$

     RDKit          2D

 18 17  0  0  0  0  0  0  0  0999 V2000
    0.0000    0.0000    0.0000 C   0  0  0  0  0  0  0  0  0  0  0  0
    1.2990    0.7500    0.0000 C   0  0  0  0  0  0  0  0  0  0  0  0
    2.5981   -0.0000    0.0000 C   0  0  0  0  0  0  0  0  0  0  0  0
    3.8971    0.7500    0.0000 C   0  0  0  0  0  0  0  0  0  0  0  0
    5.1962   -0.0000    0.0000 C   0  0  0  0  0  0  0  0  0  0  0  0
    6.4952    0.7500    0.0000 C   0  0  0  0  0  0  0  0  0  0  0  0
    7.7942   -0.0000    0.0000 C   0  0  0  0  0  0  0  0  0  0  0  0
    9.0933    0.7500    0.0000 C   0  0  0  0  0  0  0  0  0  0  0  0
   10.3923   -0.0000    0.0000 C   0  0  0  0  0  0  0  0  0  0  0  0
   11.6913    0.7500    0.0000 C   0  0  0  0  0  0  0  0  0  0  0  0
   12.9904   -0.0000    0.0000 C   0  0  0  0  0  0  0  0  0  0  0  0
   14.2894    0.7500    0.0000 C   0  0  0  0  0  0  0  0  0  0  0  0
   15.5885   -0.0000    0.0000 O   0  0  0  0  0  0  0  0  0  0  0  0
   16.8875    0.7500    0.0000 C   0  0  0  0  0  0  0  0  0  0  0  0
   16.8875    2.2500    0.0000 O   0  0  0  0  0  0  0  0  0  0  0  0
   18.1865   -0.0000    0.0000 C   0  0  0  0  0  0  0  0  0  0  0  0
   18.1865   -1.5000    0.0000 C   0  0  0  0  0  0  0  0  0  0  0  0
   19.4856    0.7500    0.0000 C   0  0  0  0  0  0  0  0  0  0  0  0
  1  2  1  0
  2  3  1  0
  3  4  1  0
  4  5  1  0
  5  6  1  0
  6  7  1  0
  7  8  1  0
  8  9  1  0
  9 10  1  0
 10 11  1  0
 11 12  1  0
 12 13  1  0
 13 14  1  0
 14 15  2  0
 14 16  1  0
 16 17  2  0
 16 18  1  0
M  END
>  <name>  (565) 
dodecyl 2-methylprop-2-enoate

>  <Outcome>  (565) 
2

>  <SMILES>  (565) 
C=C(C)C(=O)OCCCCCCCCCCCC

$$$$

     RDKit          2D

 48 56  0  0  0  0  0  0  0  0999 V2000
    6.3974    5.2464    0.0000 C   0  0  0  0  0  0  0  0  0  0  0  0
    6.8099    4.5319    0.0000 O   0  0  0  0  0  0  0  0  0  0  0  0
    6.3974    3.8175    0.0000 C   0  0  0  0  0  0  0  0  0  0  0  0
    6.8099    3.1030    0.0000 C   0  0  0  0  0  0  0  0  0  0  0  0
    6.3974    2.3885    0.0000 C   0  0  0  0  0  0  0  0  0  0  0  0
    5.5724    2.3885    0.0000 C   0  0  0  0  0  0  0  0  0  0  0  0
    5.1599    1.6741    0.0000 C   0  0  0  0  0  0  0  0  0  0  0  0
    4.3349    1.6741    0.0000 N   0  0  0  0  0  0  0  0  0  0  0  0
    3.9224    0.9596    0.0000 C   0  0  0  0  0  0  0  0  0  0  0  0
    4.3349    0.2451    0.0000 O   0  0  0  0  0  0  0  0  0  0  0  0
    3.0974    0.9596    0.0000 C   0  0  0  0  0  0  0  0  0  0  0  0
    2.6849    0.2451    0.0000 C   0  0  0  0  0  0  0  0  0  0  0  0
    1.8599    0.2451    0.0000 C   0  0  0  0  0  0  0  0  0  0  0  0
    1.4474    0.9596    0.0000 C   0  0  0  0  0  0  0  0  0  0  0  0
    0.6224    0.9596    0.0000 C   0  0  0  0  0  0  0  0  0  0  0  0
    0.2099    0.2451    0.0000 C   0  0  0  0  0  0  0  0  0  0  0  0
   -0.6151    0.2451    0.0000 C   0  0  0  0  0  0  0  0  0  0  0  0
   -1.0276    0.9596    0.0000 C   0  0  0  0  0  0  0  0  0  0  0  0
   -1.8526    0.9596    0.0000 C   0  0  0  0  0  0  0  0  0  0  0  0
   -2.2651    0.2451    0.0000 O   0  0  0  0  0  0  0  0  0  0  0  0
   -2.2651    1.6741    0.0000 N   0  0  0  0  0  0  0  0  0  0  0  0
   -3.0901    1.6741    0.0000 C   0  0  0  0  0  0  0  0  0  0  0  0
   -3.5026    2.3885    0.0000 C   0  0  0  0  0  0  0  0  0  0  0  0
   -4.3276    2.3885    0.0000 C   0  0  0  0  0  0  0  0  0  0  0  0
   -4.7401    3.1030    0.0000 C   0  0  0  0  0  0  0  0  0  0  0  0
   -4.3276    3.8175    0.0000 C   0  0  0  0  0  0  0  0  0  0  0  0
   -4.7401    4.5319    0.0000 O   0  0  0  0  0  0  0  0  0  0  0  0
   -5.5651    4.5319    0.0000 C   0  0  0  0  0  0  0  0  0  0  0  0
   -3.5026    3.8175    0.0000 C   0  0  0  0  0  0  0  0  0  0  0  0
   -3.0901    3.1030    0.0000 C   0  0  0  0  0  0  0  0  0  0  0  0
   -1.8526    2.3885    0.0000 C   0  0  0  0  0  0  0  0  0  0  0  0
   -2.2651    3.1030    0.0000 O   0  0  0  0  0  0  0  0  0  0  0  0
   -1.0276    2.3885    0.0000 C   0  0  0  0  0  0  0  0  0  0  0  0
   -0.6151    3.1030    0.0000 C   0  0  0  0  0  0  0  0  0  0  0  0
    0.2099    3.1030    0.0000 C   0  0  0  0  0  0  0  0  0  0  0  0
    0.6224    2.3885    0.0000 C   0  0  0  0  0  0  0  0  0  0  0  0
    1.4474    2.3885    0.0000 C   0  0  0  0  0  0  0  0  0  0  0  0
    1.8599    3.1030    0.0000 C   0  0  0  0  0  0  0  0  0  0  0  0
    2.6849    3.1030    0.0000 C   0  0  0  0  0  0  0  0  0  0  0  0
    3.0974    2.3885    0.0000 C   0  0  0  0  0  0  0  0  0  0  0  0
    3.9224    2.3885    0.0000 C   0  0  0  0  0  0  0  0  0  0  0  0
    4.3349    3.1030    0.0000 O   0  0  0  0  0  0  0  0  0  0  0  0
    2.6849    1.6741    0.0000 C   0  0  0  0  0  0  0  0  0  0  0  0
    1.8599    1.6741    0.0000 C   0  0  0  0  0  0  0  0  0  0  0  0
    0.2099    1.6741    0.0000 C   0  0  0  0  0  0  0  0  0  0  0  0
   -0.6151    1.6741    0.0000 C   0  0  0  0  0  0  0  0  0  0  0  0
    5.1599    3.1030    0.0000 C   0  0  0  0  0  0  0  0  0  0  0  0
    5.5724    3.8175    0.0000 C   0  0  0  0  0  0  0  0  0  0  0  0
  1  2  1  0
  2  3  1  0
  3  4  2  0
  4  5  1  0
  5  6  2  0
  6  7  1  0
  7  8  1  0
  8  9  1  0
  9 10  2  0
  9 11  1  0
 11 12  2  0
 12 13  1  0
 13 14  2  0
 14 15  1  0
 15 16  2  0
 16 17  1  0
 17 18  2  0
 18 19  1  0
 19 20  2  0
 19 21  1  0
 21 22  1  0
 22 23  1  0
 23 24  2  0
 24 25  1  0
 25 26  2  0
 26 27  1  0
 27 28  1  0
 26 29  1  0
 29 30  2  0
 23 30  1  0
 21 31  1  0
 31 32  2  0
 31 33  1  0
 33 34  2  0
 34 35  1  0
 35 36  2  0
 36 37  1  0
 37 38  1  0
 38 39  2  0
 39 40  1  0
 40 41  1  0
  8 41  1  0
 41 42  2  0
 40 43  2  0
 11 43  1  0
 43 44  1  0
 14 44  1  0
 37 44  2  0
 36 45  1  0
 15 45  1  0
 45 46  2  0
 18 46  1  0
 33 46  1  0
  6 47  1  0
 47 48  2  0
  3 48  1  0
M  END
>  <name>  (566) 
7,18-bis[(4-methoxyphenyl)methyl]-7,18-diazaheptacyclo[14.6.2.2??,????.0??,????.0????,????.0????,????.0??????,??????]hexacosa-1(22),2,4,9,11,13(23),14,16(24),20,25-decaene-6,8,17,19-tetrone

>  <Outcome>  (566) 
0

>  <SMILES>  (566) 
COc1ccc(CN2C(=O)c3ccc4c5ccc6c7c(ccc(c8ccc(c3c48)C2=O)c75)C(=O)N(Cc2ccc(OC)cc2)C6=O)cc1

$$$$

     RDKit          2D

 26 28  0  0  0  0  0  0  0  0999 V2000
    1.9504   -0.3396    0.0000 C   0  0  0  0  0  0  0  0  0  0  0  0
    2.3385    0.3884    0.0000 C   0  0  0  0  0  0  0  0  0  0  0  0
    2.9881   -0.1202    0.0000 C   0  0  0  0  0  0  0  0  0  0  0  0
    1.5542    0.6441    0.0000 C   0  0  0  0  0  0  0  0  0  0  0  0
    1.3835    1.4513    0.0000 C   0  0  0  0  0  0  0  0  0  0  0  0
    1.9971    2.0027    0.0000 C   0  0  0  0  0  0  0  0  0  0  0  0
    2.7815    1.7469    0.0000 C   0  0  0  0  0  0  0  0  0  0  0  0
    2.8972    2.5638    0.0000 C   0  0  0  0  0  0  0  0  0  0  0  0
    3.6060    1.7749    0.0000 C   0  0  0  0  0  0  0  0  0  0  0  0
    2.9522    0.9398    0.0000 N   0  0  0  0  0  0  0  0  0  0  0  0
    0.9460    1.0033    0.0000 O   0  0  0  0  0  0  0  0  0  0  0  0
    0.0486    1.4527    0.0000 C   0  0  0  0  0  0  0  0  0  0  0  0
    0.6611    0.9000    0.0000 C   0  0  0  0  0  0  0  0  0  0  0  0
    0.4887    0.0932    0.0000 C   0  0  0  0  0  0  0  0  0  0  0  0
   -0.2961   -0.1609    0.0000 C   0  0  0  0  0  0  0  0  0  0  0  0
   -0.9087    0.3918    0.0000 C   0  0  0  0  0  0  0  0  0  0  0  0
   -1.6936    0.1376    0.0000 C   0  0  0  0  0  0  0  0  0  0  0  0
   -2.3061    0.6903    0.0000 C   0  0  0  0  0  0  0  0  0  0  0  0
   -2.1337    1.4971    0.0000 C   0  0  0  0  0  0  0  0  0  0  0  0
   -1.3488    1.7512    0.0000 C   0  0  0  0  0  0  0  0  0  0  0  0
   -1.1765    2.5580    0.0000 C   0  0  0  0  0  0  0  0  0  0  0  0
   -0.3916    2.8121    0.0000 C   0  0  0  0  0  0  0  0  0  0  0  0
   -0.0096    2.2232    0.0000 C   0  0  0  0  0  0  0  0  0  0  0  0
    0.3043    2.2370    0.0000 N   0  0  0  0  0  0  0  0  0  0  0  0
    1.1293    2.2362    0.0000 C   0  0  0  0  0  0  0  0  0  0  0  0
    1.6150    2.9031    0.0000 O   0  0  0  0  0  0  0  0  0  0  0  0
  1  2  1  0
  2  3  1  0
  2  4  1  0
  4  5  1  0
  5  6  1  0
  6  7  1  0
  7  8  1  0
  7  9  1  0
  7 10  1  0
  2 10  1  0
  5 11  1  0
 11 12  1  0
 12 13  1  0
 13 14  1  0
 14 15  1  0
 15 16  1  0
 16 17  1  0
 17 18  1  0
 18 19  1  0
 19 20  1  0
 20 21  1  0
 21 22  1  0
 22 23  1  0
 12 23  1  0
 12 24  1  0
 24 25  1  0
  5 25  1  0
 25 26  2  0
M  END
>  <name>  (567) 
2,2,4,4-tetramethyl-7-oxa-3,20-diazadispiro[5.1.11????.2????]henicosan-21-one

>  <Outcome>  (567) 
1

>  <SMILES>  (567) 
CC1(C)CC2(CC(C)(C)N1)OC1(CCCCCCCCCCC1)NC2=O

$$$$

     RDKit          2D

  2  1  0  0  0  0  0  0  0  0999 V2000
    0.8250    0.0000    0.0000 C   0  0  0  0  0  0  0  0  0  0  0  0
   -0.0000    0.0000    0.0000 S   0  0  0  0  0  0  0  0  0  0  0  0
  1  2  1  0
M  END
>  <name>  (568) 
methanethiol

>  <Outcome>  (568) 
1

>  <SMILES>  (568) 
CS

$$$$

     RDKit          2D

 17 16  0  0  0  0  0  0  0  0999 V2000
    5.3142    4.0077    0.0000 C   0  0  0  0  0  0  0  0  0  0  0  0
    6.0287    3.5952    0.0000 C   0  0  0  0  0  0  0  0  0  0  0  0
    6.7432    4.0077    0.0000 C   0  0  0  0  0  0  0  0  0  0  0  0
    7.4576    3.5952    0.0000 C   0  0  0  0  0  0  0  0  0  0  0  0
    8.1721    4.0077    0.0000 C   0  0  0  0  0  0  0  0  0  0  0  0
    8.1721    4.8327    0.0000 C   0  0  0  0  0  0  0  0  0  0  0  0
    8.8866    5.2452    0.0000 C   0  0  0  0  0  0  0  0  0  0  0  0
    8.8866    3.5952    0.0000 C   0  0  0  0  0  0  0  0  0  0  0  0
    9.6011    4.0077    0.0000 N   0  0  0  0  0  0  0  0  0  0  0  0
   10.3155    3.5952    0.0000 C   0  0  0  0  0  0  0  0  0  0  0  0
   11.0300    4.0077    0.0000 C   0  0  0  0  0  0  0  0  0  0  0  0
   11.0300    4.8327    0.0000 C   0  0  0  0  0  0  0  0  0  0  0  0
   11.7445    5.2452    0.0000 C   0  0  0  0  0  0  0  0  0  0  0  0
   11.7445    3.5952    0.0000 C   0  0  0  0  0  0  0  0  0  0  0  0
   12.4589    4.0077    0.0000 C   0  0  0  0  0  0  0  0  0  0  0  0
   13.1734    3.5952    0.0000 C   0  0  0  0  0  0  0  0  0  0  0  0
   13.8879    4.0077    0.0000 C   0  0  0  0  0  0  0  0  0  0  0  0
  1  2  1  0
  2  3  1  0
  3  4  1  0
  4  5  1  0
  5  6  1  0
  6  7  1  0
  5  8  1  0
  8  9  1  0
  9 10  1  0
 10 11  1  0
 11 12  1  0
 12 13  1  0
 11 14  1  0
 14 15  1  0
 15 16  1  0
 16 17  1  0
M  END
>  <name>  (569) 
bis(2-ethylhexyl)amine

>  <Outcome>  (569) 
1

>  <SMILES>  (569) 
CCCCC(CC)CNCC(CC)CCCC

$$$$

     RDKit          2D

  6  5  0  0  0  0  0  0  0  0999 V2000
    2.6710   -1.4141    0.0000 C   0  0  0  0  0  0  0  0  0  0  0  0
    2.2585   -0.6997    0.0000 C   0  0  0  0  0  0  0  0  0  0  0  0
    2.6710    0.0148    0.0000 C   0  0  0  0  0  0  0  0  0  0  0  0
    1.4335   -0.6997    0.0000 C   0  0  0  0  0  0  0  0  0  0  0  0
    1.0210    0.0148    0.0000 C   0  0  0  0  0  0  0  0  0  0  0  0
    0.1960    0.0148    0.0000 N   0  0  0  0  0  0  0  0  0  0  0  0
  1  2  1  0
  2  3  1  0
  2  4  1  0
  4  5  1  0
  5  6  1  0
M  END
>  <name>  (570) 
3-methylbutan-1-amine

>  <Outcome>  (570) 
1

>  <SMILES>  (570) 
CC(C)CCN

$$$$

     RDKit          2D

  9  9  0  0  0  0  0  0  0  0999 V2000
    2.4118    1.2504    0.0000 C   0  0  0  0  0  0  0  0  0  0  0  0
    1.6974    0.8379    0.0000 N   0  0  0  0  0  0  0  0  0  0  0  0
    1.6974    0.0129    0.0000 C   0  0  0  0  0  0  0  0  0  0  0  0
    0.9829   -0.3996    0.0000 C   0  0  0  0  0  0  0  0  0  0  0  0
    0.2684    0.0129    0.0000 O   0  0  0  0  0  0  0  0  0  0  0  0
    0.2684    0.8379    0.0000 Si  0  0  0  0  0  4  0  0  0  0  0  0
   -0.5441    0.6947    0.0000 C   0  0  0  0  0  0  0  0  0  0  0  0
   -0.0138    1.6132    0.0000 C   0  0  0  0  0  0  0  0  0  0  0  0
    0.9829    1.2504    0.0000 C   0  0  0  0  0  0  0  0  0  0  0  0
  1  2  1  0
  2  3  1  0
  3  4  1  0
  4  5  1  0
  5  6  1  0
  6  7  1  0
  6  8  1  0
  6  9  1  0
  2  9  1  0
M  END
>  <name>  (571) 
2,2,4-trimethyl-1,4,2-oxazasilinane

>  <Outcome>  (571) 
0

>  <SMILES>  (571) 
CN1CCO[Si](C)(C)C1

$$$$

     RDKit          2D

 21 19  0  0  0  0  0  0  0  0999 V2000
    2.5981    1.5000    0.0000 C   0  0  0  0  0  0  0  0  0  0  0  0
    2.5981    3.0000    0.0000 O   0  0  0  0  0  0  0  0  0  0  0  0
    1.2990    0.7500    0.0000 C   0  0  0  0  0  0  0  0  0  0  0  0
   -0.0000   -0.0000    0.0000 C   0  0  0  0  0  0  0  0  0  0  0  0
   -1.2990   -0.7500    0.0000 F   0  0  0  0  0  0  0  0  0  0  0  0
   -0.7500    1.2990    0.0000 F   0  0  0  0  0  0  0  0  0  0  0  0
    0.7500   -1.2990    0.0000 F   0  0  0  0  0  0  0  0  0  0  0  0
    2.0490   -0.5490    0.0000 O   0  0  0  0  0  0  0  0  0  0  0  0
    3.5490   -0.5490    0.0000 C   0  0  0  0  0  0  0  0  0  0  0  0
    5.0490   -0.5490    0.0000 C   0  0  0  0  0  0  0  0  0  0  0  0
    6.5490   -0.5490    0.0000 C   0  0  0  0  0  0  0  0  0  0  0  0
    8.0490   -0.5490    0.0000 F   0  0  0  0  0  0  0  0  0  0  0  0
    6.5490   -2.0490    0.0000 F   0  0  0  0  0  0  0  0  0  0  0  0
    6.5490    0.9510    0.0000 F   0  0  0  0  0  0  0  0  0  0  0  0
    5.0490    0.9510    0.0000 F   0  0  0  0  0  0  0  0  0  0  0  0
    5.0490   -2.0490    0.0000 F   0  0  0  0  0  0  0  0  0  0  0  0
    3.5490   -2.0490    0.0000 F   0  0  0  0  0  0  0  0  0  0  0  0
    3.6462    0.2422    0.0000 F   0  0  0  0  0  0  0  0  0  0  0  0
    0.5490    2.0490    0.0000 F   0  0  0  0  0  0  0  0  0  0  0  0
    3.3319    1.1885    0.0000 O   0  0  0  0  0  1  0  0  0  0  0  0
    0.0000    4.0000    0.0000 N   0  0  0  0  0  4  0  0  0  0  0  0
  1  2  2  0
  1  3  1  0
  3  4  1  0
  4  5  1  0
  4  6  1  0
  4  7  1  0
  3  8  1  0
  8  9  1  0
  9 10  1  0
 10 11  1  0
 11 12  1  0
 11 13  1  0
 11 14  1  0
 10 15  1  0
 10 16  1  0
  9 17  1  0
  9 18  1  0
  3 19  1  0
  1 20  1  0
M  CHG  2  20  -1  21   1
M  END
>  <name>  (572) 
azanium;2,3,3,3-tetrafluoro-2-(1,1,2,2,3,3,3-heptafluoropropoxy)propanoate

>  <Outcome>  (572) 
2

>  <SMILES>  (572) 
O=C([O-])C(F)(OC(F)(F)C(F)(F)C(F)(F)F)C(F)(F)F.[NH4+]

$$$$

     RDKit          2D

 12 10  0  0  0  0  0  0  0  0999 V2000
    0.0000    0.0000    0.0000 C   0  0  0  0  0  0  0  0  0  0  0  0
    1.2990    0.7500    0.0000 C   0  0  0  0  0  0  0  0  0  0  0  0
    1.2990    2.2500    0.0000 O   0  0  0  0  0  0  0  0  0  0  0  0
    2.5981   -0.0000    0.0000 O   0  0  0  0  0  0  0  0  0  0  0  0
    0.0000    3.2500    0.0000 C   0  0  0  0  0  0  0  0  0  0  0  0
    1.2990    4.0000    0.0000 C   0  0  0  0  0  0  0  0  0  0  0  0
    2.5981    3.2500    0.0000 C   0  0  0  0  0  0  0  0  0  0  0  0
    3.8971    4.0000    0.0000 C   0  0  0  0  0  0  0  0  0  0  0  0
    5.1962    3.2500    0.0000 Br  0  0  0  0  0  0  0  0  0  0  0  0
   -1.2990    4.0000    0.0000 C   0  0  0  0  0  0  0  0  0  0  0  0
   -2.5981    3.2500    0.0000 C   0  0  0  0  0  0  0  0  0  0  0  0
   -3.8971    4.0000    0.0000 O   0  0  0  0  0  0  0  0  0  0  0  0
  1  2  1  0
  2  3  2  0
  2  4  1  0
  5  6  1  0
  6  7  1  0
  7  8  1  0
  8  9  1  0
  5 10  1  0
 10 11  1  0
 11 12  1  0
M  END
>  <name>  (573) 
acetic acid;6-bromohexan-1-ol

>  <Outcome>  (573) 
2

>  <SMILES>  (573) 
CC(=O)O.OCCCCCCBr

$$$$

     RDKit          2D

  2  0  0  0  0  0  0  0  0  0999 V2000
    0.0000    0.0000    0.0000 Li  0  0  0  0  0 15  0  0  0  0  0  0
    1.0000    0.0000    0.0000 F   0  0  0  0  0 15  0  0  0  0  0  0
M  CHG  2   1   1   2  -1
M  END
>  <name>  (574) 
lithium;fluoride

>  <Outcome>  (574) 
2

>  <SMILES>  (574) 
[F-].[Li+]

$$$$

     RDKit          2D

  8  7  0  0  0  0  0  0  0  0999 V2000
    1.7605    1.8454    0.0000 C   0  0  0  0  0  0  0  0  0  0  0  0
    2.4750    1.4329    0.0000 C   0  0  0  0  0  0  0  0  0  0  0  0
    3.1895    1.8454    0.0000 O   0  0  0  0  0  0  0  0  0  0  0  0
    3.9039    1.4329    0.0000 C   0  0  0  0  0  0  0  0  0  0  0  0
    3.9039    0.6079    0.0000 O   0  0  0  0  0  0  0  0  0  0  0  0
    4.6184    1.8454    0.0000 O   0  0  0  0  0  0  0  0  0  0  0  0
    5.3329    1.4329    0.0000 C   0  0  0  0  0  0  0  0  0  0  0  0
    6.0474    1.8454    0.0000 C   0  0  0  0  0  0  0  0  0  0  0  0
  1  2  1  0
  2  3  1  0
  3  4  1  0
  4  5  2  0
  4  6  1  0
  6  7  1  0
  7  8  1  0
M  END
>  <name>  (575) 
diethyl carbonate

>  <Outcome>  (575) 
1

>  <SMILES>  (575) 
CCOC(=O)OCC

$$$$

     RDKit          2D

 28 30  0  0  0  0  0  0  0  0999 V2000
   -2.0461    0.3777    0.0000 O   0  0  0  0  0  0  0  0  0  0  0  0
   -1.3316   -0.0348    0.0000 C   0  0  0  0  0  0  0  0  0  0  0  0
   -0.6171   -0.4473    0.0000 N   0  0  0  0  0  0  0  0  0  0  0  0
   -0.6171   -1.2723    0.0000 C   0  0  0  0  0  0  0  0  0  0  0  0
    0.0973   -1.6848    0.0000 C   0  0  0  0  0  0  0  0  0  0  0  0
    0.0973   -2.5098    0.0000 C   0  0  0  0  0  0  0  0  0  0  0  0
   -0.6171   -2.9223    0.0000 C   0  0  0  0  0  0  0  0  0  0  0  0
   -0.6171   -3.7473    0.0000 C   0  0  0  0  0  0  0  0  0  0  0  0
   -1.3316   -4.1598    0.0000 C   0  0  0  0  0  0  0  0  0  0  0  0
   -1.3316   -4.9848    0.0000 C   0  0  0  0  0  0  0  0  0  0  0  0
   -2.0461   -5.3973    0.0000 C   0  0  0  0  0  0  0  0  0  0  0  0
   -2.7605   -4.9848    0.0000 C   0  0  0  0  0  0  0  0  0  0  0  0
   -3.4750   -5.3973    0.0000 N   0  0  0  0  0  0  0  0  0  0  0  0
   -3.4750   -6.2223    0.0000 C   0  0  0  0  0  0  0  0  0  0  0  0
   -3.4750   -7.0473    0.0000 O   0  0  0  0  0  0  0  0  0  0  0  0
   -2.7605   -4.1598    0.0000 C   0  0  0  0  0  0  0  0  0  0  0  0
   -2.0461   -3.7473    0.0000 C   0  0  0  0  0  0  0  0  0  0  0  0
    0.0973   -4.1598    0.0000 C   0  0  0  0  0  0  0  0  0  0  0  0
    0.8118   -3.7473    0.0000 C   0  0  0  0  0  0  0  0  0  0  0  0
    1.5263   -4.1598    0.0000 C   0  0  0  0  0  0  0  0  0  0  0  0
    1.5263   -4.9848    0.0000 C   0  0  0  0  0  0  0  0  0  0  0  0
    2.2408   -5.3973    0.0000 N   0  0  0  0  0  0  0  0  0  0  0  0
    2.2408   -6.2223    0.0000 C   0  0  0  0  0  0  0  0  0  0  0  0
    2.2408   -7.0473    0.0000 O   0  0  0  0  0  0  0  0  0  0  0  0
    0.8118   -5.3973    0.0000 C   0  0  0  0  0  0  0  0  0  0  0  0
    0.0973   -4.9848    0.0000 C   0  0  0  0  0  0  0  0  0  0  0  0
   -1.3316   -2.5098    0.0000 C   0  0  0  0  0  0  0  0  0  0  0  0
   -1.3316   -1.6848    0.0000 C   0  0  0  0  0  0  0  0  0  0  0  0
  1  2  2  0
  2  3  2  0
  3  4  1  0
  4  5  2  0
  5  6  1  0
  6  7  2  0
  7  8  1  0
  8  9  1  0
  9 10  2  0
 10 11  1  0
 11 12  2  0
 12 13  1  0
 13 14  2  0
 14 15  2  0
 12 16  1  0
 16 17  2  0
  9 17  1  0
  8 18  1  0
 18 19  2  0
 19 20  1  0
 20 21  2  0
 21 22  1  0
 22 23  2  0
 23 24  2  0
 21 25  1  0
 25 26  2  0
 18 26  1  0
  7 27  1  0
 27 28  2  0
  4 28  1  0
M  END
>  <name>  (576) 
1,1',1'-methanetriyltris(4-isocyanatobenzene)

>  <Outcome>  (576) 
1

>  <SMILES>  (576) 
O=C=Nc1ccc(C(c2ccc(N=C=O)cc2)c2ccc(N=C=O)cc2)cc1

$$$$

     RDKit          2D

  9  8  0  0  0  0  0  0  0  0999 V2000
    1.0461    1.4273    0.0000 C   0  0  0  0  0  0  0  0  0  0  0  0
    1.7605    1.8398    0.0000 C   0  0  0  0  0  0  0  0  0  0  0  0
    2.4750    1.4273    0.0000 C   0  0  0  0  0  0  0  0  0  0  0  0
    3.1895    1.8398    0.0000 C   0  0  0  0  0  0  0  0  0  0  0  0
    3.9039    1.4273    0.0000 C   0  0  0  0  0  0  0  0  0  0  0  0
    4.6184    1.8398    0.0000 C   0  0  0  0  0  0  0  0  0  0  0  0
    5.3329    1.4273    0.0000 C   0  0  0  0  0  0  0  0  0  0  0  0
    6.0474    1.8398    0.0000 O   0  0  0  0  0  0  0  0  0  0  0  0
    5.3329    0.6023    0.0000 Cl  0  0  0  0  0  0  0  0  0  0  0  0
  1  2  1  0
  2  3  1  0
  3  4  1  0
  4  5  1  0
  5  6  1  0
  6  7  1  0
  7  8  2  0
  7  9  1  0
M  END
>  <name>  (577) 
heptanoyl chloride

>  <Outcome>  (577) 
1

>  <SMILES>  (577) 
CCCCCCC(=O)Cl

$$$$

     RDKit          2D

 13 13  0  0  0  0  0  0  0  0999 V2000
    1.5481    2.3183    0.0000 C   0  0  0  0  0  0  0  0  0  0  0  0
    0.7231    2.3183    0.0000 C   0  0  0  0  0  0  0  0  0  0  0  0
   -0.1019    2.3183    0.0000 C   0  0  0  0  0  0  0  0  0  0  0  0
    0.7231    1.4933    0.0000 C   0  0  0  0  0  0  0  0  0  0  0  0
    1.4376    1.0808    0.0000 C   0  0  0  0  0  0  0  0  0  0  0  0
    1.4376    0.2558    0.0000 C   0  0  0  0  0  0  0  0  0  0  0  0
    0.7231   -0.1567    0.0000 C   0  0  0  0  0  0  0  0  0  0  0  0
    0.0087    0.2558    0.0000 C   0  0  0  0  0  0  0  0  0  0  0  0
    0.0087    1.0808    0.0000 C   0  0  0  0  0  0  0  0  0  0  0  0
    0.7231    3.1433    0.0000 S   0  0  0  0  0  0  0  0  0  0  0  0
    0.7231    3.9683    0.0000 O   0  0  0  0  0  0  0  0  0  0  0  0
    1.5481    3.1433    0.0000 O   0  0  0  0  0  0  0  0  0  0  0  0
   -0.1019    3.1433    0.0000 O   0  0  0  0  0  0  0  0  0  0  0  0
  1  2  1  0
  2  3  1  0
  2  4  1  0
  4  5  2  0
  5  6  1  0
  6  7  2  0
  7  8  1  0
  8  9  2  0
  4  9  1  0
  2 10  1  0
 10 11  2  0
 10 12  2  0
 10 13  1  0
M  END
>  <name>  (578) 
sodium cumenesulphonate

>  <Outcome>  (578) 
0

>  <SMILES>  (578) 
CC(C)(c1ccccc1)S(=O)(=O)O

$$$$

     RDKit          2D

 34 40  0  0  0  0  0  0  0  0999 V2000
    7.2404   -6.5643    0.0000 O   0  0  0  0  0  0  0  0  0  0  0  0
    7.5104   -5.7848    0.0000 C   0  0  0  0  0  0  0  0  0  0  0  0
    6.9703   -5.1611    0.0000 C   0  0  0  0  0  0  0  0  0  0  0  0
    6.1602   -5.3170    0.0000 C   0  0  0  0  0  0  0  0  0  0  0  0
    5.6201   -4.6934    0.0000 C   0  0  0  0  0  0  0  0  0  0  0  0
    5.8902   -3.9139    0.0000 C   0  0  0  0  0  0  0  0  0  0  0  0
    6.7003   -3.7579    0.0000 C   0  0  0  0  0  0  0  0  0  0  0  0
    7.2404   -4.3816    0.0000 C   0  0  0  0  0  0  0  0  0  0  0  0
    8.0505   -4.2257    0.0000 C   0  0  0  0  0  0  0  0  0  0  0  0
    8.3206   -3.4461    0.0000 O   0  0  0  0  0  0  0  0  0  0  0  0
    8.5906   -4.8493    0.0000 C   0  0  0  0  0  0  0  0  0  0  0  0
    8.3206   -5.6289    0.0000 C   0  0  0  0  0  0  0  0  0  0  0  0
    8.8606   -6.2525    0.0000 C   0  0  0  0  0  0  0  0  0  0  0  0
    9.6708   -6.0966    0.0000 C   0  0  0  0  0  0  0  0  0  0  0  0
    9.9408   -5.3170    0.0000 C   0  0  0  0  0  0  0  0  0  0  0  0
   10.7510   -5.1611    0.0000 N   0  0  0  0  0  0  0  0  0  0  0  0
   11.0210   -4.3816    0.0000 C   0  0  0  0  0  0  0  0  0  0  0  0
   10.4809   -3.7579    0.0000 C   0  0  0  0  0  0  0  0  0  0  0  0
   10.7510   -2.9784    0.0000 C   0  0  0  0  0  0  0  0  0  0  0  0
   11.5611   -2.8225    0.0000 C   0  0  0  0  0  0  0  0  0  0  0  0
   12.1012   -3.4461    0.0000 C   0  0  0  0  0  0  0  0  0  0  0  0
   12.9113   -3.2902    0.0000 C   0  0  0  0  0  0  0  0  0  0  0  0
   13.1814   -2.5107    0.0000 O   0  0  0  0  0  0  0  0  0  0  0  0
   13.4514   -3.9139    0.0000 C   0  0  0  0  0  0  0  0  0  0  0  0
   14.2615   -3.7579    0.0000 C   0  0  0  0  0  0  0  0  0  0  0  0
   14.8016   -4.3816    0.0000 C   0  0  0  0  0  0  0  0  0  0  0  0
   14.5316   -5.1611    0.0000 C   0  0  0  0  0  0  0  0  0  0  0  0
   13.7215   -5.3170    0.0000 C   0  0  0  0  0  0  0  0  0  0  0  0
   13.1814   -4.6934    0.0000 C   0  0  0  0  0  0  0  0  0  0  0  0
   12.3712   -4.8493    0.0000 C   0  0  0  0  0  0  0  0  0  0  0  0
   12.1012   -5.6289    0.0000 O   0  0  0  0  0  0  0  0  0  0  0  0
   11.8311   -4.2257    0.0000 C   0  0  0  0  0  0  0  0  0  0  0  0
    9.6708   -3.9139    0.0000 N   0  0  0  0  0  0  0  0  0  0  0  0
    9.4007   -4.6934    0.0000 C   0  0  0  0  0  0  0  0  0  0  0  0
  1  2  2  0
  2  3  1  0
  3  4  2  0
  4  5  1  0
  5  6  2  0
  6  7  1  0
  7  8  2  0
  3  8  1  0
  8  9  1  0
  9 10  2  0
  9 11  1  0
 11 12  2  0
  2 12  1  0
 12 13  1  0
 13 14  2  0
 14 15  1  0
 15 16  1  0
 16 17  1  0
 17 18  2  0
 18 19  1  0
 19 20  2  0
 20 21  1  0
 21 22  1  0
 22 23  2  0
 22 24  1  0
 24 25  2  0
 25 26  1  0
 26 27  2  0
 27 28  1  0
 28 29  2  0
 24 29  1  0
 29 30  1  0
 30 31  2  0
 30 32  1  0
 21 32  2  0
 17 32  1  0
 18 33  1  0
 33 34  1  0
 15 34  2  0
 11 34  1  0
M  END
>  <name>  (579) 
2,17-diazaheptacyclo[16.12.0.0??,??????.0????,????.0????,????.0??????,??????.0????,??????]triaconta-1(30),3,6(11),7,9,13,15,18,21(26),22,24,28-dodecaene-5,12,20,27-tetrone

>  <Outcome>  (579) 
0

>  <SMILES>  (579) 
O=c1c2ccccc2c(=O)c2c1ccc1[nH]c3c(ccc4c(=O)c5ccccc5c(=O)c43)[nH]c12

$$$$

     RDKit          2D

 31 32  0  0  0  0  0  0  0  0999 V2000
    1.0188   -1.7645    0.0000 C   0  0  0  0  0  0  0  0  0  0  0  0
    0.6063   -1.0501    0.0000 C   0  0  0  0  0  0  0  0  0  0  0  0
    0.1938   -0.3356    0.0000 C   0  0  0  0  0  0  0  0  0  0  0  0
   -0.1082   -1.4626    0.0000 C   0  0  0  0  0  0  0  0  0  0  0  0
   -0.8227   -1.0501    0.0000 C   0  0  0  0  0  0  0  0  0  0  0  0
   -1.5371   -1.4626    0.0000 C   0  0  0  0  0  0  0  0  0  0  0  0
   -2.2516   -1.0501    0.0000 Br  0  0  0  0  0  0  0  0  0  0  0  0
   -1.5371   -2.2876    0.0000 C   0  0  0  0  0  0  0  0  0  0  0  0
   -2.2516   -2.7001    0.0000 O   0  0  0  0  0  0  0  0  0  0  0  0
   -2.2516   -3.5251    0.0000 C   0  0  0  0  0  0  0  0  0  0  0  0
   -2.9661   -3.9376    0.0000 C   0  0  0  0  0  0  0  0  0  0  0  0
   -3.6806   -3.5251    0.0000 Br  0  0  0  0  0  0  0  0  0  0  0  0
   -2.9661   -4.7626    0.0000 C   0  0  0  0  0  0  0  0  0  0  0  0
   -3.6806   -5.1751    0.0000 Br  0  0  0  0  0  0  0  0  0  0  0  0
   -0.8227   -2.7001    0.0000 C   0  0  0  0  0  0  0  0  0  0  0  0
   -0.8227   -3.5251    0.0000 Br  0  0  0  0  0  0  0  0  0  0  0  0
   -0.1082   -2.2876    0.0000 C   0  0  0  0  0  0  0  0  0  0  0  0
    1.3207   -0.6376    0.0000 C   0  0  0  0  0  0  0  0  0  0  0  0
    2.0352   -1.0501    0.0000 C   0  0  0  0  0  0  0  0  0  0  0  0
    2.7497   -0.6376    0.0000 C   0  0  0  0  0  0  0  0  0  0  0  0
    3.4641   -1.0501    0.0000 Br  0  0  0  0  0  0  0  0  0  0  0  0
    2.7497    0.1874    0.0000 C   0  0  0  0  0  0  0  0  0  0  0  0
    3.4641    0.5999    0.0000 O   0  0  0  0  0  0  0  0  0  0  0  0
    4.1786    0.1874    0.0000 C   0  0  0  0  0  0  0  0  0  0  0  0
    4.8931    0.5999    0.0000 C   0  0  0  0  0  0  0  0  0  0  0  0
    4.8931    1.4249    0.0000 Br  0  0  0  0  0  0  0  0  0  0  0  0
    5.6076    0.1874    0.0000 C   0  0  0  0  0  0  0  0  0  0  0  0
    6.3220    0.5999    0.0000 Br  0  0  0  0  0  0  0  0  0  0  0  0
    2.0352    0.5999    0.0000 C   0  0  0  0  0  0  0  0  0  0  0  0
    2.0352    1.4249    0.0000 Br  0  0  0  0  0  0  0  0  0  0  0  0
    1.3207    0.1874    0.0000 C   0  0  0  0  0  0  0  0  0  0  0  0
  1  2  1  0
  2  3  1  0
  2  4  1  0
  5  4  2  0
  6  5  1  0
  6  7  1  0
  8  6  2  0
  8  9  1  0
  9 10  1  0
 10 11  1  0
 11 12  1  0
 11 13  1  0
 13 14  1  0
 15  8  1  0
 15 16  1  0
 17 15  2  0
  2 18  1  0
 19 18  2  0
 20 19  1  0
 20 21  1  0
 22 20  2  0
 22 23  1  0
 23 24  1  0
 24 25  1  0
 25 26  1  0
 25 27  1  0
 27 28  1  0
 29 22  1  0
 29 30  1  0
 31 29  2  0
  4 17  1  0
 18 31  1  0
M  END
>  <name>  (580) 
Tetrabromobisphenol A-bis(2,3-dibromopropyl ether)

>  <Outcome>  (580) 
0

>  <SMILES>  (580) 
CC(C)(c1cc(Br)c(OCC(Br)CBr)c(Br)c1)c1cc(Br)c(OCC(Br)CBr)c(Br)c1

$$$$

     RDKit          2D

 10  6  0  0  0  0  0  0  0  0999 V2000
    0.0000    0.0000    0.0000 N   0  0  0  0  0  4  0  0  0  0  0  0
   -0.0000   -1.5000    0.0000 O   0  0  0  0  0  0  0  0  0  0  0  0
   -1.2990    0.7500    0.0000 O   0  0  0  0  0  0  0  0  0  0  0  0
    1.2990    0.7500    0.0000 O   0  0  0  0  0  1  0  0  0  0  0  0
    0.0000    3.2500    0.0000 N   0  0  0  0  0  4  0  0  0  0  0  0
   -0.0000    1.7500    0.0000 O   0  0  0  0  0  0  0  0  0  0  0  0
   -1.2990    4.0000    0.0000 O   0  0  0  0  0  0  0  0  0  0  0  0
    1.2990    4.0000    0.0000 O   0  0  0  0  0  1  0  0  0  0  0  0
    2.2990    0.0000    0.0000 O   0  0  0  0  0  0  0  0  0  0  0  0
    3.2990    0.0000    0.0000 Cr  0  0  0  0  0 15  0  0  0  0  0  0
  1  2  2  0
  1  3  1  0
  1  4  1  0
  5  6  2  0
  5  7  1  0
  5  8  1  0
M  CHG  4   1   1   4  -1   5   1   8  -1
M  END
>  <name>  (581) 
chromium;nitric acid;hydrate

>  <Outcome>  (581) 
2

>  <SMILES>  (581) 
O.O=[N+]([O-])O.O=[N+]([O-])O.[Cr]

$$$$

     RDKit          2D

 17 18  0  0  0  0  0  0  0  0999 V2000
    1.5000    0.0000    0.0000 C   0  0  0  0  0  0  0  0  0  0  0  0
    0.7500   -1.2990    0.0000 C   0  0  0  0  0  0  0  0  0  0  0  0
   -0.7500   -1.2990    0.0000 C   0  0  0  0  0  0  0  0  0  0  0  0
   -1.5000    0.0000    0.0000 C   0  0  0  0  0  0  0  0  0  0  0  0
   -0.7500    1.2990    0.0000 C   0  0  0  0  0  0  0  0  0  0  0  0
    0.7500    1.2990    0.0000 C   0  0  0  0  0  0  0  0  0  0  0  0
   -3.0000    0.0000    0.0000 C   0  0  0  0  0  0  0  0  0  0  0  0
   -3.7500    1.2990    0.0000 C   0  0  0  0  0  0  0  0  0  0  0  0
   -3.0000    2.5981    0.0000 O   0  0  0  0  0  0  0  0  0  0  0  0
   -5.2500    1.2990    0.0000 O   0  0  0  0  0  0  0  0  0  0  0  0
   -6.0000    2.5981    0.0000 C   0  0  0  0  0  0  0  0  0  0  0  0
   -7.5000    2.5981    0.0000 C   0  0  0  0  0  0  0  0  0  0  0  0
   -8.2500    3.8971    0.0000 C   0  0  0  0  0  0  0  0  0  0  0  0
   -9.7500    3.8971    0.0000 C   0  0  0  0  0  0  0  0  0  0  0  0
  -10.5000    2.5981    0.0000 C   0  0  0  0  0  0  0  0  0  0  0  0
   -9.7500    1.2990    0.0000 C   0  0  0  0  0  0  0  0  0  0  0  0
   -8.2500    1.2990    0.0000 C   0  0  0  0  0  0  0  0  0  0  0  0
  1  2  2  0
  2  3  1  0
  3  4  2  0
  4  5  1  0
  5  6  2  0
  4  7  1  0
  7  8  1  0
  8  9  2  0
  8 10  1  0
 10 11  1  0
 11 12  1  0
 12 13  2  0
 13 14  1  0
 14 15  2  0
 15 16  1  0
 16 17  2  0
  6  1  1  0
 17 12  1  0
M  END
>  <name>  (582) 
benzyl 2-phenylacetate

>  <Outcome>  (582) 
2

>  <SMILES>  (582) 
O=C(Cc1ccccc1)OCc1ccccc1

$$$$

     RDKit          2D

  7  5  0  0  0  0  0  0  0  0999 V2000
    0.0000    0.0000    0.0000 C   0  0  0  0  0  0  0  0  0  0  0  0
   -0.0000   -1.5000    0.0000 O   0  0  0  0  0  0  0  0  0  0  0  0
    1.2990    0.7500    0.0000 C   0  0  0  0  0  0  0  0  0  0  0  0
    1.2990    2.2500    0.0000 O   0  0  0  0  0  0  0  0  0  0  0  0
    2.5981   -0.0000    0.0000 O   0  0  0  0  0  1  0  0  0  0  0  0
   -1.2990    0.7500    0.0000 O   0  0  0  0  0  1  0  0  0  0  0  0
    0.0000    3.2500    0.0000 Cu  0  0  0  0  0 15  0  0  0  0  0  0
  1  2  2  0
  1  3  1  0
  3  4  2  0
  3  5  1  0
  1  6  1  0
M  CHG  3   5  -1   6  -1   7   2
M  END
>  <name>  (583) 
copper;oxalate

>  <Outcome>  (583) 
2

>  <SMILES>  (583) 
O=C([O-])C(=O)[O-].[Cu+2]

$$$$

     RDKit          2D

  7  6  0  0  0  0  0  0  0  0999 V2000
    0.0000    0.0000    0.0000 C   0  0  0  0  0  0  0  0  0  0  0  0
    1.2990    0.7500    0.0000 C   0  0  0  0  0  0  0  0  0  0  0  0
    2.5981    1.5000    0.0000 F   0  0  0  0  0  0  0  0  0  0  0  0
    2.0490   -0.5490    0.0000 F   0  0  0  0  0  0  0  0  0  0  0  0
    0.5490    2.0490    0.0000 F   0  0  0  0  0  0  0  0  0  0  0  0
   -1.2990    0.7500    0.0000 Cl  0  0  0  0  0  0  0  0  0  0  0  0
   -0.0000   -1.5000    0.0000 Br  0  0  0  0  0  0  0  0  0  0  0  0
  1  2  1  0
  2  3  1  0
  2  4  1  0
  2  5  1  0
  1  6  1  0
  1  7  1  0
M  END
>  <name>  (584) 
2-bromo-2-chloro-1,1,1-trifluoroethane

>  <Outcome>  (584) 
2

>  <SMILES>  (584) 
FC(F)(F)C(Cl)Br

$$$$

     RDKit          2D

 56 55  0  0  0  0  0  0  0  0999 V2000
   26.5174   16.1811    0.0000 C   0  0  0  0  0  0  0  0  0  0  0  0
   27.2319   15.7686    0.0000 C   0  0  0  0  0  0  0  0  0  0  0  0
   27.9463   16.1811    0.0000 C   0  0  0  0  0  0  0  0  0  0  0  0
   28.6608   15.7686    0.0000 C   0  0  0  0  0  0  0  0  0  0  0  0
   29.3753   16.1811    0.0000 C   0  0  0  0  0  0  0  0  0  0  0  0
   30.0898   15.7686    0.0000 C   0  0  0  0  0  0  0  0  0  0  0  0
   30.8042   16.1811    0.0000 C   0  0  0  0  0  0  0  0  0  0  0  0
   31.5187   15.7686    0.0000 C   0  0  0  0  0  0  0  0  0  0  0  0
   32.2332   16.1811    0.0000 C   0  0  0  0  0  0  0  0  0  0  0  0
   32.9476   15.7686    0.0000 C   0  0  0  0  0  0  0  0  0  0  0  0
   33.6621   16.1811    0.0000 C   0  0  0  0  0  0  0  0  0  0  0  0
   34.3766   15.7686    0.0000 C   0  0  0  0  0  0  0  0  0  0  0  0
   35.0910   16.1811    0.0000 C   0  0  0  0  0  0  0  0  0  0  0  0
   35.8055   15.7686    0.0000 C   0  0  0  0  0  0  0  0  0  0  0  0
   36.5200   16.1811    0.0000 C   0  0  0  0  0  0  0  0  0  0  0  0
   37.2345   15.7686    0.0000 C   0  0  0  0  0  0  0  0  0  0  0  0
   37.9489   16.1811    0.0000 C   0  0  0  0  0  0  0  0  0  0  0  0
   38.6634   15.7686    0.0000 C   0  0  0  0  0  0  0  0  0  0  0  0
   38.6634   14.9436    0.0000 O   0  0  0  0  0  0  0  0  0  0  0  0
   39.3779   16.1811    0.0000 O   0  0  0  0  0  0  0  0  0  0  0  0
   40.0923   15.7686    0.0000 C   0  0  0  0  0  0  0  0  0  0  0  0
   40.0923   14.9436    0.0000 C   0  0  0  0  0  0  0  0  0  0  0  0
   39.3779   14.5311    0.0000 C   0  0  0  0  0  0  0  0  0  0  0  0
   39.3779   13.7061    0.0000 C   0  0  0  0  0  0  0  0  0  0  0  0
   38.6634   13.2936    0.0000 C   0  0  0  0  0  0  0  0  0  0  0  0
   38.6634   12.4686    0.0000 C   0  0  0  0  0  0  0  0  0  0  0  0
   37.9489   12.0561    0.0000 C   0  0  0  0  0  0  0  0  0  0  0  0
   40.8068   16.1811    0.0000 C   0  0  0  0  0  0  0  0  0  0  0  0
   41.5213   15.7686    0.0000 C   0  0  0  0  0  0  0  0  0  0  0  0
   42.2358   16.1811    0.0000 C   0  0  0  0  0  0  0  0  0  0  0  0
   42.9502   15.7686    0.0000 C   0  0  0  0  0  0  0  0  0  0  0  0
   43.6647   16.1811    0.0000 C   0  0  0  0  0  0  0  0  0  0  0  0
   44.3792   15.7686    0.0000 C   0  0  0  0  0  0  0  0  0  0  0  0
   45.0936   16.1811    0.0000 C   0  0  0  0  0  0  0  0  0  0  0  0
   45.8081   15.7686    0.0000 C   0  0  0  0  0  0  0  0  0  0  0  0
   46.5226   16.1811    0.0000 C   0  0  0  0  0  0  0  0  0  0  0  0
   47.2371   15.7686    0.0000 C   0  0  0  0  0  0  0  0  0  0  0  0
   47.9515   16.1811    0.0000 C   0  0  0  0  0  0  0  0  0  0  0  0
   47.9515   17.0061    0.0000 O   0  0  0  0  0  0  0  0  0  0  0  0
   48.6660   15.7686    0.0000 O   0  0  0  0  0  0  0  0  0  0  0  0
   49.3805   16.1811    0.0000 C   0  0  0  0  0  0  0  0  0  0  0  0
   50.0949   15.7686    0.0000 C   0  0  0  0  0  0  0  0  0  0  0  0
   50.8094   16.1811    0.0000 C   0  0  0  0  0  0  0  0  0  0  0  0
   51.5239   15.7686    0.0000 C   0  0  0  0  0  0  0  0  0  0  0  0
   52.2384   16.1811    0.0000 C   0  0  0  0  0  0  0  0  0  0  0  0
   52.9528   15.7686    0.0000 C   0  0  0  0  0  0  0  0  0  0  0  0
   53.6673   16.1811    0.0000 C   0  0  0  0  0  0  0  0  0  0  0  0
   54.3818   15.7686    0.0000 C   0  0  0  0  0  0  0  0  0  0  0  0
   55.0962   16.1811    0.0000 C   0  0  0  0  0  0  0  0  0  0  0  0
   55.8107   15.7686    0.0000 C   0  0  0  0  0  0  0  0  0  0  0  0
   56.5252   16.1811    0.0000 C   0  0  0  0  0  0  0  0  0  0  0  0
   57.2396   15.7686    0.0000 C   0  0  0  0  0  0  0  0  0  0  0  0
   57.9541   16.1811    0.0000 C   0  0  0  0  0  0  0  0  0  0  0  0
   58.6686   15.7686    0.0000 C   0  0  0  0  0  0  0  0  0  0  0  0
   59.3831   16.1811    0.0000 C   0  0  0  0  0  0  0  0  0  0  0  0
   58.6686   14.9436    0.0000 C   0  0  0  0  0  0  0  0  0  0  0  0
  1  2  1  0
  2  3  1  0
  3  4  1  0
  4  5  1  0
  5  6  1  0
  6  7  1  0
  7  8  1  0
  8  9  1  0
  9 10  1  0
 10 11  1  0
 11 12  1  0
 12 13  1  0
 13 14  1  0
 14 15  1  0
 15 16  1  0
 16 17  1  0
 17 18  1  0
 18 19  2  0
 18 20  1  0
 20 21  1  0
 21 22  1  0
 22 23  1  0
 23 24  1  0
 24 25  1  0
 25 26  1  0
 26 27  1  0
 21 28  1  0
 28 29  1  0
 29 30  1  0
 30 31  1  0
 31 32  1  0
 32 33  1  0
 33 34  1  0
 34 35  1  0
 35 36  1  0
 36 37  1  0
 37 38  1  0
 38 39  2  0
 38 40  1  0
 40 41  1  0
 41 42  1  0
 42 43  1  0
 43 44  1  0
 44 45  1  0
 45 46  1  0
 46 47  1  0
 47 48  1  0
 48 49  1  0
 49 50  1  0
 50 51  1  0
 51 52  1  0
 52 53  1  0
 53 54  1  0
 54 55  1  0
 54 56  1  0
M  END
>  <name>  (585) 
isohexadecyl 12-[(1-oxooctadecyl)oxy]octadecanoate

>  <Outcome>  (585) 
0

>  <SMILES>  (585) 
CCCCCCCCCCCCCCCCCC(=O)OC(CCCCCC)CCCCCCCCCCC(=O)OCCCCCCCCCCCCCC(C)C

$$$$

     RDKit          2D

 14 13  0  0  0  0  0  0  0  0999 V2000
    2.1522    3.1023    0.0000 C   0  0  0  0  0  0  0  0  0  0  0  0
    1.4377    2.6898    0.0000 C   0  0  0  0  0  0  0  0  0  0  0  0
    1.4377    1.8648    0.0000 O   0  0  0  0  0  0  0  0  0  0  0  0
    0.7233    1.4523    0.0000 Si  0  0  0  0  0  4  0  0  0  0  0  0
    0.0088    1.0398    0.0000 C   0  0  0  0  0  0  0  0  0  0  0  0
   -0.7057    1.4523    0.0000 C   0  0  0  0  0  0  0  0  0  0  0  0
   -1.4202    1.0398    0.0000 C   0  0  0  0  0  0  0  0  0  0  0  0
   -1.4202    0.2148    0.0000 N   0  0  0  0  0  0  0  0  0  0  0  0
    0.3108    2.1668    0.0000 O   0  0  0  0  0  0  0  0  0  0  0  0
   -0.5142    2.1668    0.0000 C   0  0  0  0  0  0  0  0  0  0  0  0
   -0.9267    2.8812    0.0000 C   0  0  0  0  0  0  0  0  0  0  0  0
    1.1358    0.7378    0.0000 O   0  0  0  0  0  0  0  0  0  0  0  0
    0.7233    0.0234    0.0000 C   0  0  0  0  0  0  0  0  0  0  0  0
   -0.1017    0.0234    0.0000 C   0  0  0  0  0  0  0  0  0  0  0  0
  1  2  1  0
  2  3  1  0
  3  4  1  0
  4  5  1  0
  5  6  1  0
  6  7  1  0
  7  8  1  0
  4  9  1  0
  9 10  1  0
 10 11  1  0
  4 12  1  0
 12 13  1  0
 13 14  1  0
M  END
>  <name>  (586) 
(3-aminopropyl)triethoxysilane

>  <Outcome>  (586) 
0

>  <SMILES>  (586) 
CCO[Si](CCCN)(OCC)OCC

$$$$

     RDKit          2D

 12 12  0  0  0  0  0  0  0  0999 V2000
    1.3346    2.0022    0.0000 Cl  0  0  0  0  0  0  0  0  0  0  0  0
    1.3346    1.1772    0.0000 C   0  0  0  0  0  0  0  0  0  0  0  0
    2.0491    0.7647    0.0000 O   0  0  0  0  0  0  0  0  0  0  0  0
    0.6201    0.7647    0.0000 C   0  0  0  0  0  0  0  0  0  0  0  0
   -0.0944    1.1772    0.0000 C   0  0  0  0  0  0  0  0  0  0  0  0
   -0.8088    0.7647    0.0000 C   0  0  0  0  0  0  0  0  0  0  0  0
   -0.8088   -0.0603    0.0000 C   0  0  0  0  0  0  0  0  0  0  0  0
   -0.0944   -0.4728    0.0000 C   0  0  0  0  0  0  0  0  0  0  0  0
    0.6201   -0.0603    0.0000 C   0  0  0  0  0  0  0  0  0  0  0  0
   -0.0944   -1.2978    0.0000 C   0  0  0  0  0  0  0  0  0  0  0  0
    0.6201   -1.7103    0.0000 Cl  0  0  0  0  0  0  0  0  0  0  0  0
   -0.8088   -1.7103    0.0000 O   0  0  0  0  0  0  0  0  0  0  0  0
  1  2  1  0
  2  3  2  0
  2  4  1  0
  5  4  2  0
  6  5  1  0
  7  6  2  0
  8  7  1  0
  9  8  2  0
  8 10  1  0
 10 11  1  0
 10 12  2  0
  4  9  1  0
M  END
>  <name>  (587) 
1,3-Benzenedicarbonyl dichloride

>  <Outcome>  (587) 
1

>  <SMILES>  (587) 
O=C(Cl)c1cccc(C(=O)Cl)c1

$$$$

     RDKit          2D

  4  3  0  0  0  0  0  0  0  0999 V2000
    1.3557   -0.1372    0.0000 Cl  0  0  0  0  0  0  0  0  0  0  0  0
    0.5307   -0.1372    0.0000 C   0  0  0  0  0  0  0  0  0  0  0  0
    0.1182    0.5773    0.0000 C   0  0  0  0  0  0  0  0  0  0  0  0
   -0.7068    0.5773    0.0000 O   0  0  0  0  0  0  0  0  0  0  0  0
  1  2  1  0
  2  3  1  0
  3  4  2  0
M  END
>  <name>  (588) 
Chloroacetaldehyde

>  <Outcome>  (588) 
1

>  <SMILES>  (588) 
O=CCCl

$$$$

     RDKit          2D

  7  6  0  0  0  0  0  0  0  0999 V2000
    0.0000    0.0000    0.0000 C   0  0  0  0  0  0  0  0  0  0  0  0
    1.2990    0.7500    0.0000 C   0  0  0  0  0  0  0  0  0  0  0  0
    2.5981   -0.0000    0.0000 O   0  0  0  0  0  0  0  0  0  0  0  0
    3.8971    0.7500    0.0000 C   0  0  0  0  0  0  0  0  0  0  0  0
    5.1962   -0.0000    0.0000 O   0  0  0  0  0  0  0  0  0  0  0  0
    6.4952    0.7500    0.0000 C   0  0  0  0  0  0  0  0  0  0  0  0
    7.7942   -0.0000    0.0000 C   0  0  0  0  0  0  0  0  0  0  0  0
  1  2  1  0
  2  3  1  0
  3  4  1  0
  4  5  1  0
  5  6  1  0
  6  7  1  0
M  END
>  <name>  (589) 
ethoxymethoxyethane

>  <Outcome>  (589) 
2

>  <SMILES>  (589) 
CCOCOCC

$$$$

     RDKit          2D

 11 10  0  0  0  0  0  0  0  0999 V2000
    2.8934    1.8930    0.0000 C   0  0  0  0  0  0  0  0  0  0  0  0
    2.1789    1.4805    0.0000 C   0  0  0  0  0  0  0  0  0  0  0  0
    1.4644    1.8930    0.0000 O   0  0  0  0  0  0  0  0  0  0  0  0
    0.7499    1.4805    0.0000 P   0  0  0  0  0  0  0  0  0  0  0  0
    0.3374    2.1949    0.0000 O   0  0  0  0  0  0  0  0  0  0  0  0
    0.0355    1.0680    0.0000 O   0  0  0  0  0  0  0  0  0  0  0  0
   -0.6790    1.4805    0.0000 C   0  0  0  0  0  0  0  0  0  0  0  0
   -1.3935    1.0680    0.0000 C   0  0  0  0  0  0  0  0  0  0  0  0
    1.1624    0.7660    0.0000 O   0  0  0  0  0  0  0  0  0  0  0  0
    0.7499    0.0515    0.0000 C   0  0  0  0  0  0  0  0  0  0  0  0
   -0.0751    0.0515    0.0000 C   0  0  0  0  0  0  0  0  0  0  0  0
  1  2  1  0
  2  3  1  0
  3  4  1  0
  4  5  2  0
  4  6  1  0
  6  7  1  0
  7  8  1  0
  4  9  1  0
  9 10  1  0
 10 11  1  0
M  END
>  <name>  (590) 
triethyl phosphate

>  <Outcome>  (590) 
0

>  <SMILES>  (590) 
CCOP(=O)(OCC)OCC

$$$$

     RDKit          2D

 10  9  0  0  0  0  0  0  0  0999 V2000
    0.1105   -2.8875    0.0000 C   0  0  0  0  0  0  0  0  0  0  0  0
    0.1105   -2.0625    0.0000 C   0  0  0  0  0  0  0  0  0  0  0  0
    0.9355   -2.0625    0.0000 C   0  0  0  0  0  0  0  0  0  0  0  0
   -0.7145   -2.0625    0.0000 C   0  0  0  0  0  0  0  0  0  0  0  0
    0.1105   -1.2375    0.0000 O   0  0  0  0  0  0  0  0  0  0  0  0
    0.8250   -0.8250    0.0000 O   0  0  0  0  0  0  0  0  0  0  0  0
    0.8250   -0.0000    0.0000 C   0  0  0  0  0  0  0  0  0  0  0  0
    0.8250    0.8250    0.0000 C   0  0  0  0  0  0  0  0  0  0  0  0
    1.6500   -0.0000    0.0000 C   0  0  0  0  0  0  0  0  0  0  0  0
   -0.0000   -0.0000    0.0000 C   0  0  0  0  0  0  0  0  0  0  0  0
  1  2  1  0
  2  3  1  0
  2  4  1  0
  2  5  1  0
  5  6  1  0
  6  7  1  0
  7  8  1  0
  7  9  1  0
  7 10  1  0
M  END
>  <name>  (591) 
2-(tert-butylperoxy)-2-methylpropane

>  <Outcome>  (591) 
0

>  <SMILES>  (591) 
CC(C)(C)OOC(C)(C)C

$$$$

     RDKit          2D

  6  5  0  0  0  0  0  0  0  0999 V2000
    0.4303    1.2804    0.0000 C   0  0  0  0  0  0  0  0  0  0  0  0
    0.8428    0.5660    0.0000 C   0  0  0  0  0  0  0  0  0  0  0  0
    1.6678    0.5660    0.0000 C   0  0  0  0  0  0  0  0  0  0  0  0
    0.4303   -0.1485    0.0000 C   0  0  0  0  0  0  0  0  0  0  0  0
    0.8428   -0.8630    0.0000 O   0  0  0  0  0  0  0  0  0  0  0  0
   -0.3947   -0.1485    0.0000 O   0  0  0  0  0  0  0  0  0  0  0  0
  1  2  1  0
  2  3  2  0
  2  4  1  0
  4  5  1  0
  4  6  2  0
M  END
>  <name>  (592) 
Methacrylic acid

>  <Outcome>  (592) 
1

>  <SMILES>  (592) 
C=C(C)C(=O)O

$$$$

     RDKit          2D

 64 66  0  0  0  0  0  0  0  0999 V2000
    4.3212  -11.5244    0.0000 C   0  0  0  0  0  0  0  0  0  0  0  0
    3.6067  -11.1119    0.0000 C   0  0  0  0  0  0  0  0  0  0  0  0
    2.8923  -11.5244    0.0000 C   0  0  0  0  0  0  0  0  0  0  0  0
    2.8923  -12.3494    0.0000 N   0  0  0  0  0  0  0  0  0  0  0  0
    2.1778  -12.7619    0.0000 C   0  0  0  0  0  0  0  0  0  0  0  0
    1.4633  -12.3494    0.0000 O   0  0  0  0  0  0  0  0  0  0  0  0
    2.1778  -13.5869    0.0000 N   0  0  0  0  0  0  0  0  0  0  0  0
    1.4633  -13.9994    0.0000 C   0  0  0  0  0  0  0  0  0  0  0  0
    1.4633  -14.8244    0.0000 C   0  0  0  0  0  0  0  0  0  0  0  0
    2.1778  -15.2369    0.0000 C   0  0  0  0  0  0  0  0  0  0  0  0
    2.1778  -16.0619    0.0000 C   0  0  0  0  0  0  0  0  0  0  0  0
    1.4633  -16.4744    0.0000 C   0  0  0  0  0  0  0  0  0  0  0  0
    0.7489  -16.0619    0.0000 C   0  0  0  0  0  0  0  0  0  0  0  0
    0.0344  -16.4744    0.0000 C   0  0  0  0  0  0  0  0  0  0  0  0
    0.0344  -17.2994    0.0000 N   0  0  0  0  0  0  0  0  0  0  0  0
   -0.6801  -17.7119    0.0000 C   0  0  0  0  0  0  0  0  0  0  0  0
   -1.3946  -17.2994    0.0000 O   0  0  0  0  0  0  0  0  0  0  0  0
   -0.6801  -18.5369    0.0000 N   0  0  0  0  0  0  0  0  0  0  0  0
   -1.3946  -18.9494    0.0000 C   0  0  0  0  0  0  0  0  0  0  0  0
   -1.3946  -19.7744    0.0000 C   0  0  0  0  0  0  0  0  0  0  0  0
   -2.1090  -20.1869    0.0000 C   0  0  0  0  0  0  0  0  0  0  0  0
   -2.8235  -19.7744    0.0000 C   0  0  0  0  0  0  0  0  0  0  0  0
   -2.8235  -18.9494    0.0000 C   0  0  0  0  0  0  0  0  0  0  0  0
   -3.5380  -18.5369    0.0000 N   0  0  0  0  0  0  0  0  0  0  0  0
   -4.2524  -18.9494    0.0000 C   0  0  0  0  0  0  0  0  0  0  0  0
   -4.2524  -19.7744    0.0000 O   0  0  0  0  0  0  0  0  0  0  0  0
   -4.9669  -18.5369    0.0000 O   0  0  0  0  0  0  0  0  0  0  0  0
   -5.6814  -18.9494    0.0000 C   0  0  0  0  0  0  0  0  0  0  0  0
   -6.3959  -18.5369    0.0000 C   0  0  0  0  0  0  0  0  0  0  0  0
   -7.1103  -18.9494    0.0000 C   0  0  0  0  0  0  0  0  0  0  0  0
   -7.8248  -18.5369    0.0000 C   0  0  0  0  0  0  0  0  0  0  0  0
   -8.5393  -18.9494    0.0000 C   0  0  0  0  0  0  0  0  0  0  0  0
   -9.2537  -18.5369    0.0000 C   0  0  0  0  0  0  0  0  0  0  0  0
   -9.9682  -18.9494    0.0000 C   0  0  0  0  0  0  0  0  0  0  0  0
  -10.6827  -18.5369    0.0000 C   0  0  0  0  0  0  0  0  0  0  0  0
  -11.3972  -18.9494    0.0000 C   0  0  0  0  0  0  0  0  0  0  0  0
  -12.1116  -18.5369    0.0000 C   0  0  0  0  0  0  0  0  0  0  0  0
  -12.8261  -18.9494    0.0000 C   0  0  0  0  0  0  0  0  0  0  0  0
  -13.5406  -18.5369    0.0000 C   0  0  0  0  0  0  0  0  0  0  0  0
  -12.8261  -19.7744    0.0000 C   0  0  0  0  0  0  0  0  0  0  0  0
   -2.1090  -18.5369    0.0000 C   0  0  0  0  0  0  0  0  0  0  0  0
   -2.1090  -17.7119    0.0000 C   0  0  0  0  0  0  0  0  0  0  0  0
    0.7489  -15.2369    0.0000 C   0  0  0  0  0  0  0  0  0  0  0  0
    2.1778  -11.1119    0.0000 C   0  0  0  0  0  0  0  0  0  0  0  0
    2.1778  -10.2869    0.0000 C   0  0  0  0  0  0  0  0  0  0  0  0
    2.8923   -9.8744    0.0000 C   0  0  0  0  0  0  0  0  0  0  0  0
    3.6067  -10.2869    0.0000 C   0  0  0  0  0  0  0  0  0  0  0  0
    4.3212   -9.8744    0.0000 N   0  0  0  0  0  0  0  0  0  0  0  0
    5.0357  -10.2869    0.0000 C   0  0  0  0  0  0  0  0  0  0  0  0
    5.0357  -11.1119    0.0000 O   0  0  0  0  0  0  0  0  0  0  0  0
    5.7501   -9.8744    0.0000 O   0  0  0  0  0  0  0  0  0  0  0  0
    6.4646  -10.2869    0.0000 C   0  0  0  0  0  0  0  0  0  0  0  0
    7.1791   -9.8744    0.0000 C   0  0  0  0  0  0  0  0  0  0  0  0
    7.8936  -10.2869    0.0000 C   0  0  0  0  0  0  0  0  0  0  0  0
    8.6080   -9.8744    0.0000 C   0  0  0  0  0  0  0  0  0  0  0  0
    9.3225  -10.2869    0.0000 C   0  0  0  0  0  0  0  0  0  0  0  0
   10.0370   -9.8744    0.0000 C   0  0  0  0  0  0  0  0  0  0  0  0
   10.7514  -10.2869    0.0000 C   0  0  0  0  0  0  0  0  0  0  0  0
   11.4659   -9.8744    0.0000 C   0  0  0  0  0  0  0  0  0  0  0  0
   12.1804  -10.2869    0.0000 C   0  0  0  0  0  0  0  0  0  0  0  0
   12.8949   -9.8744    0.0000 C   0  0  0  0  0  0  0  0  0  0  0  0
   13.6093  -10.2869    0.0000 C   0  0  0  0  0  0  0  0  0  0  0  0
   14.3238   -9.8744    0.0000 C   0  0  0  0  0  0  0  0  0  0  0  0
   13.6093  -11.1119    0.0000 C   0  0  0  0  0  0  0  0  0  0  0  0
  1  2  1  0
  2  3  2  0
  3  4  1  0
  4  5  1  0
  5  6  2  0
  5  7  1  0
  7  8  1  0
  8  9  1  0
  9 10  2  0
 10 11  1  0
 11 12  2  0
 12 13  1  0
 13 14  1  0
 14 15  1  0
 15 16  1  0
 16 17  2  0
 16 18  1  0
 18 19  1  0
 19 20  2  0
 20 21  1  0
 21 22  2  0
 22 23  1  0
 23 24  1  0
 24 25  1  0
 25 26  2  0
 25 27  1  0
 27 28  1  0
 28 29  1  0
 29 30  1  0
 30 31  1  0
 31 32  1  0
 32 33  1  0
 33 34  1  0
 34 35  1  0
 35 36  1  0
 36 37  1  0
 37 38  1  0
 38 39  1  0
 38 40  1  0
 23 41  2  0
 19 41  1  0
 41 42  1  0
 13 43  2  0
  9 43  1  0
  3 44  1  0
 44 45  2  0
 45 46  1  0
 46 47  2  0
  2 47  1  0
 47 48  1  0
 48 49  1  0
 49 50  2  0
 49 51  1  0
 51 52  1  0
 52 53  1  0
 53 54  1  0
 54 55  1  0
 55 56  1  0
 56 57  1  0
 57 58  1  0
 58 59  1  0
 59 60  1  0
 60 61  1  0
 61 62  1  0
 62 63  1  0
 62 64  1  0
M  END
>  <name>  (593) 
unnamed [865536-03-4]

>  <Outcome>  (593) 
0

>  <SMILES>  (593) 
Cc1c(NC(=O)NCc2cccc(CNC(=O)Nc3cccc(NC(=O)OCCCCCCCCCCC(C)C)c3C)c2)cccc1NC(=O)OCCCCCCCCCCC(C)C

$$$$

     RDKit          2D

  7  6  0  0  0  0  0  0  0  0999 V2000
    1.2375    2.1434    0.0000 C   0  0  0  0  0  0  0  0  0  0  0  0
    0.8250    1.4289    0.0000 C   0  0  0  0  0  0  0  0  0  0  0  0
   -0.0000    1.4289    0.0000 O   0  0  0  0  0  0  0  0  0  0  0  0
    1.2375    0.7145    0.0000 O   0  0  0  0  0  0  0  0  0  0  0  0
    0.8250   -0.0000    0.0000 C   0  0  0  0  0  0  0  0  0  0  0  0
    1.2375   -0.7145    0.0000 C   0  0  0  0  0  0  0  0  0  0  0  0
   -0.0000   -0.0000    0.0000 O   0  0  0  0  0  0  0  0  0  0  0  0
  1  2  1  0
  2  3  2  0
  2  4  1  0
  4  5  1  0
  5  6  1  0
  5  7  2  0
M  END
>  <name>  (594) 
acetic anhydride

>  <Outcome>  (594) 
1

>  <SMILES>  (594) 
CC(=O)OC(C)=O

$$$$

     RDKit          2D

  9  9  0  0  0  0  0  0  0  0999 V2000
    3.0000    0.0000    0.0000 C   0  0  0  0  0  0  0  0  0  0  0  0
    1.5000    0.0000    0.0000 C   0  0  0  0  0  0  0  0  0  0  0  0
    0.7500   -1.2990    0.0000 C   0  0  0  0  0  0  0  0  0  0  0  0
   -0.7500   -1.2990    0.0000 C   0  0  0  0  0  0  0  0  0  0  0  0
   -1.5000    0.0000    0.0000 C   0  0  0  0  0  0  0  0  0  0  0  0
   -0.7500    1.2990    0.0000 C   0  0  0  0  0  0  0  0  0  0  0  0
    0.7500    1.2990    0.0000 C   0  0  0  0  0  0  0  0  0  0  0  0
   -1.5000   -2.5981    0.0000 C   0  0  0  0  0  0  0  0  0  0  0  0
    1.5000   -2.5981    0.0000 N   0  0  0  0  0  0  0  0  0  0  0  0
  1  2  1  0
  2  3  2  0
  3  4  1  0
  4  5  2  0
  5  6  1  0
  6  7  2  0
  4  8  1  0
  3  9  1  0
  7  2  1  0
M  END
>  <name>  (595) 
2,6-dimethylaniline

>  <Outcome>  (595) 
2

>  <SMILES>  (595) 
Cc1cccc(C)c1N

$$$$

     RDKit          2D

  9  8  0  0  0  0  0  0  0  0999 V2000
   -0.0001    0.5240    0.0000 C   0  0  0  0  0  0  0  0  0  0  0  0
    0.7144    0.1115    0.0000 C   0  0  0  0  0  0  0  0  0  0  0  0
    1.4288    0.5240    0.0000 C   0  0  0  0  0  0  0  0  0  0  0  0
    2.1433    0.1115    0.0000 C   0  0  0  0  0  0  0  0  0  0  0  0
    2.8578    0.5240    0.0000 O   0  0  0  0  0  0  0  0  0  0  0  0
    3.5723    0.1115    0.0000 C   0  0  0  0  0  0  0  0  0  0  0  0
    4.2867    0.5240    0.0000 C   0  0  0  0  0  0  0  0  0  0  0  0
    5.0012    0.1115    0.0000 C   0  0  0  0  0  0  0  0  0  0  0  0
    5.7157    0.5240    0.0000 C   0  0  0  0  0  0  0  0  0  0  0  0
  1  2  1  0
  2  3  1  0
  3  4  1  0
  4  5  1  0
  5  6  1  0
  6  7  1  0
  7  8  1  0
  8  9  1  0
M  END
>  <name>  (596) 
Butyl ether

>  <Outcome>  (596) 
0

>  <SMILES>  (596) 
CCCCOCCCC

$$$$

     RDKit          2D

  9  8  0  0  0  0  0  0  0  0999 V2000
   -0.6912   -2.4052    0.0000 C   0  0  0  0  0  0  0  0  0  0  0  0
    0.0233   -1.9927    0.0000 C   0  0  0  0  0  0  0  0  0  0  0  0
    0.7378   -2.4052    0.0000 C   0  0  0  0  0  0  0  0  0  0  0  0
    0.0233   -1.1677    0.0000 C   0  0  0  0  0  0  0  0  0  0  0  0
    0.7378   -0.7552    0.0000 O   0  0  0  0  0  0  0  0  0  0  0  0
    0.7378    0.0698    0.0000 C   0  0  0  0  0  0  0  0  0  0  0  0
    0.7378    0.8948    0.0000 C   0  0  0  0  0  0  0  0  0  0  0  0
    1.5628    0.0698    0.0000 C   0  0  0  0  0  0  0  0  0  0  0  0
   -0.0872    0.0698    0.0000 C   0  0  0  0  0  0  0  0  0  0  0  0
  1  2  1  0
  2  3  1  0
  2  4  1  0
  4  5  1  0
  5  6  1  0
  6  7  1  0
  6  8  1  0
  6  9  1  0
M  END
>  <name>  (597) 
tert-butyl isobutyl ether

>  <Outcome>  (597) 
0

>  <SMILES>  (597) 
CC(C)COC(C)(C)C

$$$$

     RDKit          2D

  6  5  0  0  0  0  0  0  0  0999 V2000
    1.1797    1.1797    0.0000 C   0  0  0  0  0  0  0  0  0  0  0  0
    0.7672    0.4652    0.0000 C   0  0  0  0  0  0  0  0  0  0  0  0
    1.1797   -0.2493    0.0000 C   0  0  0  0  0  0  0  0  0  0  0  0
    0.7672   -0.9637    0.0000 C   0  0  0  0  0  0  0  0  0  0  0  0
    1.1797   -1.6782    0.0000 Cl  0  0  0  0  0  0  0  0  0  0  0  0
   -0.0578   -0.9637    0.0000 O   0  0  0  0  0  0  0  0  0  0  0  0
  1  2  1  0
  2  3  1  0
  3  4  1  0
  4  5  1  0
  4  6  2  0
M  END
>  <name>  (598) 
Butyryl chloride

>  <Outcome>  (598) 
1

>  <SMILES>  (598) 
CCCC(=O)Cl

$$$$

     RDKit          2D

 32 34  0  0  0  0  0  0  0  0999 V2000
    2.7852    1.5024    0.0000 C   0  0  0  0  0  0  0  0  0  0  0  0
    2.0707    1.9149    0.0000 C   0  0  0  0  0  0  0  0  0  0  0  0
    2.0707    2.7399    0.0000 C   0  0  0  0  0  0  0  0  0  0  0  0
    1.3562    1.5024    0.0000 C   0  0  0  0  0  0  0  0  0  0  0  0
    0.6418    1.9149    0.0000 C   0  0  0  0  0  0  0  0  0  0  0  0
   -0.0727    1.5024    0.0000 C   0  0  0  0  0  0  0  0  0  0  0  0
   -0.0727    0.6774    0.0000 C   0  0  0  0  0  0  0  0  0  0  0  0
   -0.7872    0.2649    0.0000 O   0  0  0  0  0  0  0  0  0  0  0  0
   -1.5016    0.6774    0.0000 P   0  0  0  0  0  0  0  0  0  0  0  0
   -1.0891    1.3919    0.0000 O   0  0  0  0  0  0  0  0  0  0  0  0
   -2.2161    1.0899    0.0000 O   0  0  0  0  0  0  0  0  0  0  0  0
   -2.2161    1.9149    0.0000 C   0  0  0  0  0  0  0  0  0  0  0  0
   -1.5016    2.3274    0.0000 C   0  0  0  0  0  0  0  0  0  0  0  0
   -1.5016    3.1524    0.0000 C   0  0  0  0  0  0  0  0  0  0  0  0
   -2.2161    3.5649    0.0000 C   0  0  0  0  0  0  0  0  0  0  0  0
   -2.9306    3.1524    0.0000 C   0  0  0  0  0  0  0  0  0  0  0  0
   -2.9306    2.3274    0.0000 C   0  0  0  0  0  0  0  0  0  0  0  0
   -2.2161    4.3899    0.0000 C   0  0  0  0  0  0  0  0  0  0  0  0
   -2.9306    4.8024    0.0000 C   0  0  0  0  0  0  0  0  0  0  0  0
   -1.5016    4.8024    0.0000 C   0  0  0  0  0  0  0  0  0  0  0  0
   -1.9141   -0.0371    0.0000 O   0  0  0  0  0  0  0  0  0  0  0  0
   -2.7391   -0.0371    0.0000 C   0  0  0  0  0  0  0  0  0  0  0  0
   -3.1516    0.6774    0.0000 C   0  0  0  0  0  0  0  0  0  0  0  0
   -3.9766    0.6774    0.0000 C   0  0  0  0  0  0  0  0  0  0  0  0
   -4.3891   -0.0371    0.0000 C   0  0  0  0  0  0  0  0  0  0  0  0
   -3.9766   -0.7515    0.0000 C   0  0  0  0  0  0  0  0  0  0  0  0
   -3.1516   -0.7515    0.0000 C   0  0  0  0  0  0  0  0  0  0  0  0
   -5.2141   -0.0371    0.0000 C   0  0  0  0  0  0  0  0  0  0  0  0
   -5.6266   -0.7515    0.0000 C   0  0  0  0  0  0  0  0  0  0  0  0
   -5.6266    0.6774    0.0000 C   0  0  0  0  0  0  0  0  0  0  0  0
    0.6418    0.2649    0.0000 C   0  0  0  0  0  0  0  0  0  0  0  0
    1.3562    0.6774    0.0000 C   0  0  0  0  0  0  0  0  0  0  0  0
  1  2  1  0
  2  3  1  0
  2  4  1  0
  5  4  2  0
  6  5  1  0
  7  6  2  0
  7  8  1  0
  8  9  1  0
  9 10  2  0
  9 11  1  0
 11 12  1  0
 13 12  2  0
 14 13  1  0
 15 14  2  0
 16 15  1  0
 17 16  2  0
 15 18  1  0
 18 19  1  0
 18 20  1  0
  9 21  1  0
 21 22  1  0
 23 22  2  0
 24 23  1  0
 25 24  2  0
 26 25  1  0
 27 26  2  0
 25 28  1  0
 28 29  1  0
 28 30  1  0
 31  7  1  0
 32 31  2  0
  4 32  1  0
 12 17  1  0
 22 27  1  0
M  END
>  <name>  (599) 
Triphenyl phosphates isopropylated

>  <Outcome>  (599) 
0

>  <SMILES>  (599) 
CC(C)c1ccc(OP(=O)(Oc2ccc(C(C)C)cc2)Oc2ccc(C(C)C)cc2)cc1

$$$$

     RDKit          2D

  5  5  0  0  0  0  0  0  0  0999 V2000
    0.6674    0.2169    0.0000 C   0  0  0  0  0  0  0  0  0  0  0  0
   -0.0000    0.7018    0.0000 C   0  0  0  0  0  0  0  0  0  0  0  0
   -0.6674    0.2169    0.0000 C   0  0  0  0  0  0  0  0  0  0  0  0
   -0.4125   -0.5677    0.0000 C   0  0  0  0  0  0  0  0  0  0  0  0
    0.4125   -0.5677    0.0000 C   0  0  0  0  0  0  0  0  0  0  0  0
  2  1  1  0
  3  2  1  0
  4  3  1  0
  5  4  1  0
  1  5  1  0
M  END
>  <name>  (600) 
Cyclopentane

>  <Outcome>  (600) 
0

>  <SMILES>  (600) 
C1CCCC1

$$$$

     RDKit          2D

 14 14  0  0  0  0  0  0  0  0999 V2000
    5.2500   -1.2990    0.0000 C   0  0  0  0  0  0  0  0  0  0  0  0
    3.7500   -1.2990    0.0000 O   0  0  0  0  0  0  0  0  0  0  0  0
    3.0000    0.0000    0.0000 C   0  0  0  0  0  0  0  0  0  0  0  0
    3.7500    1.2990    0.0000 O   0  0  0  0  0  0  0  0  0  0  0  0
    1.5000    0.0000    0.0000 C   0  0  0  0  0  0  0  0  0  0  0  0
    0.7500   -1.2990    0.0000 C   0  0  0  0  0  0  0  0  0  0  0  0
   -0.7500   -1.2990    0.0000 C   0  0  0  0  0  0  0  0  0  0  0  0
   -1.5000    0.0000    0.0000 C   0  0  0  0  0  0  0  0  0  0  0  0
   -0.7500    1.2990    0.0000 C   0  0  0  0  0  0  0  0  0  0  0  0
    0.7500    1.2990    0.0000 C   0  0  0  0  0  0  0  0  0  0  0  0
    1.5000    2.5981    0.0000 C   0  0  0  0  0  0  0  0  0  0  0  0
    3.0000    2.5981    0.0000 O   0  0  0  0  0  0  0  0  0  0  0  0
    0.7500    3.8971    0.0000 O   0  0  0  0  0  0  0  0  0  0  0  0
    1.5000    5.1962    0.0000 C   0  0  0  0  0  0  0  0  0  0  0  0
  1  2  1  0
  2  3  1  0
  3  4  2  0
  3  5  1  0
  5  6  2  0
  6  7  1  0
  7  8  2  0
  8  9  1  0
  9 10  2  0
 10 11  1  0
 11 12  2  0
 11 13  1  0
 13 14  1  0
 10  5  1  0
M  END
>  <name>  (601) 
dimethyl benzene-1,2-dicarboxylate

>  <Outcome>  (601) 
2

>  <SMILES>  (601) 
COC(=O)c1ccccc1C(=O)OC

$$$$

     RDKit          2D

 10  9  0  0  0  0  0  0  0  0999 V2000
    0.0000    0.0000    0.0000 C   0  0  0  0  0  0  0  0  0  0  0  0
    1.2990    0.7500    0.0000 C   0  0  0  0  0  0  0  0  0  0  0  0
    2.5981   -0.0000    0.0000 O   0  0  0  0  0  0  0  0  0  0  0  0
    3.8971    0.7500    0.0000 C   0  0  0  0  0  0  0  0  0  0  0  0
    5.1962   -0.0000    0.0000 C   0  0  0  0  0  0  0  0  0  0  0  0
    6.4952    0.7500    0.0000 C   0  0  0  0  0  0  0  0  0  0  0  0
    7.7942   -0.0000    0.0000 C   0  0  0  0  0  0  0  0  0  0  0  0
    9.0933    0.7500    0.0000 O   0  0  0  0  0  0  0  0  0  0  0  0
   10.3923   -0.0000    0.0000 C   0  0  0  0  0  0  0  0  0  0  0  0
   11.6913    0.7500    0.0000 C   0  0  0  0  0  0  0  0  0  0  0  0
  1  2  2  0
  2  3  1  0
  3  4  1  0
  4  5  1  0
  5  6  1  0
  6  7  1  0
  7  8  1  0
  8  9  1  0
  9 10  2  0
M  END
>  <name>  (602) 
1,4-bis(ethenoxy)butane

>  <Outcome>  (602) 
2

>  <SMILES>  (602) 
C=COCCCCOC=C

$$$$

     RDKit          2D

 17 18  0  0  0  0  0  0  0  0999 V2000
    3.0000    0.0000    0.0000 C   0  0  0  0  0  0  0  0  0  0  0  0
    1.5000    0.0000    0.0000 C   0  0  0  0  0  0  0  0  0  0  0  0
    0.7500   -1.2990    0.0000 C   0  0  0  0  0  0  0  0  0  0  0  0
   -0.7500   -1.2990    0.0000 C   0  0  0  0  0  0  0  0  0  0  0  0
   -1.5000    0.0000    0.0000 C   0  0  0  0  0  0  0  0  0  0  0  0
   -0.7500    1.2990    0.0000 C   0  0  0  0  0  0  0  0  0  0  0  0
    0.7500    1.2990    0.0000 C   0  0  0  0  0  0  0  0  0  0  0  0
    1.5000    2.5981    0.0000 N   0  0  0  0  0  0  0  0  0  0  0  0
    0.7500    3.8971    0.0000 C   0  0  0  0  0  0  0  0  0  0  0  0
   -0.7500    3.8971    0.0000 O   0  0  0  0  0  0  0  0  0  0  0  0
    1.5000    5.1962    0.0000 N   0  0  0  0  0  0  0  0  0  0  0  0
    0.7500    6.4952    0.0000 C   0  0  0  0  0  0  0  0  0  0  0  0
    1.5000    7.7942    0.0000 C   0  0  0  0  0  0  0  0  0  0  0  0
    0.7500    9.0933    0.0000 C   0  0  0  0  0  0  0  0  0  0  0  0
   -0.7500    9.0933    0.0000 C   0  0  0  0  0  0  0  0  0  0  0  0
   -1.5000    7.7942    0.0000 C   0  0  0  0  0  0  0  0  0  0  0  0
   -0.7500    6.4952    0.0000 C   0  0  0  0  0  0  0  0  0  0  0  0
  1  2  1  0
  2  3  1  0
  3  4  1  0
  4  5  1  0
  5  6  1  0
  6  7  1  0
  7  8  1  0
  8  9  1  0
  9 10  2  0
  9 11  1  0
 11 12  1  0
 12 13  2  0
 13 14  1  0
 14 15  2  0
 15 16  1  0
 16 17  2  0
  7  2  1  0
 17 12  1  0
M  END
>  <name>  (603) 
1-(2-methylcyclohexyl)-3-phenylurea

>  <Outcome>  (603) 
2

>  <SMILES>  (603) 
CC1CCCCC1NC(=O)Nc1ccccc1

$$$$

     RDKit          2D

 19 20  0  0  0  0  0  0  0  0999 V2000
   -1.5000   -5.1962    0.0000 C   0  0  0  0  0  0  0  0  0  0  0  0
   -0.7500   -3.8971    0.0000 C   0  0  0  0  0  0  0  0  0  0  0  0
    0.7500   -3.8971    0.0000 C   0  0  0  0  0  0  0  0  0  0  0  0
    1.5000   -2.5981    0.0000 N   0  0  0  0  0  4  0  0  0  0  0  0
    3.0000   -2.5981    0.0000 O   0  0  0  0  0  0  0  0  0  0  0  0
    0.7500   -1.2990    0.0000 C   0  0  0  0  0  0  0  0  0  0  0  0
    1.5000    0.0000    0.0000 C   0  0  0  0  0  0  0  0  0  0  0  0
    0.7500    1.2990    0.0000 C   0  0  0  0  0  0  0  0  0  0  0  0
   -0.7500    1.2990    0.0000 C   0  0  0  0  0  0  0  0  0  0  0  0
   -1.5000    0.0000    0.0000 C   0  0  0  0  0  0  0  0  0  0  0  0
   -0.7500   -1.2990    0.0000 C   0  0  0  0  0  0  0  0  0  0  0  0
   -1.5000   -2.5981    0.0000 N   0  0  0  0  0  0  0  0  0  0  0  0
   -3.0000   -2.5981    0.0000 O   0  0  0  0  0  1  0  0  0  0  0  0
    1.5000   -5.1962    0.0000 C   0  0  0  0  0  0  0  0  0  0  0  0
    0.7500   -6.4952    0.0000 O   0  0  0  0  0  0  0  0  0  0  0  0
    3.0000   -5.1962    0.0000 N   0  0  0  0  0  0  0  0  0  0  0  0
    3.7500   -6.4952    0.0000 C   0  0  0  0  0  0  0  0  0  0  0  0
    5.2500   -6.4952    0.0000 C   0  0  0  0  0  0  0  0  0  0  0  0
    6.0000   -7.7942    0.0000 O   0  0  0  0  0  0  0  0  0  0  0  0
  1  2  1  0
  2  3  2  0
  3  4  1  0
  4  5  2  0
  4  6  1  0
  6  7  2  0
  7  8  1  0
  8  9  2  0
  9 10  1  0
 10 11  2  0
 11 12  1  0
 12 13  1  0
  3 14  1  0
 14 15  2  0
 14 16  1  0
 16 17  1  0
 17 18  1  0
 18 19  1  0
 12  2  1  0
 11  6  1  0
M  CHG  2   4   1  13  -1
M  END
>  <name>  (604) 
N-(2-hydroxyethyl)-3-methyl-4-oxido-1-oxoquinoxalin-1-ium-2-carboxamide

>  <Outcome>  (604) 
2

>  <SMILES>  (604) 
Cc1c(C(=O)NCCO)[n+](=O)c2ccccc2n1[O-]

$$$$

     RDKit          2D

  2  1  0  0  0  0  0  0  0  0999 V2000
    0.0000    0.0000    0.0000 O   0  0  0  0  0  0  0  0  0  0  0  0
    1.2990    0.7500    0.0000 O   0  0  0  0  0  0  0  0  0  0  0  0
  1  2  2  0
M  END
>  <name>  (605) 
molecular oxygen

>  <Outcome>  (605) 
2

>  <SMILES>  (605) 
O=O

$$$$

     RDKit          2D

  8  7  0  0  0  0  0  0  0  0999 V2000
    0.1128   -1.4806    0.0000 C   0  0  0  0  0  0  0  0  0  0  0  0
    0.9378   -1.4806    0.0000 O   0  0  0  0  0  0  0  0  0  0  0  0
    1.3503   -0.7662    0.0000 C   0  0  0  0  0  0  0  0  0  0  0  0
    2.1753   -0.7662    0.0000 O   0  0  0  0  0  0  0  0  0  0  0  0
    2.5878   -0.0517    0.0000 C   0  0  0  0  0  0  0  0  0  0  0  0
    0.9378   -0.0517    0.0000 N   0  0  0  0  0  0  0  0  0  0  0  0
    1.3503    0.6628    0.0000 C   0  0  0  0  0  0  0  0  0  0  0  0
    0.1128   -0.0517    0.0000 C   0  0  0  0  0  0  0  0  0  0  0  0
  1  2  1  0
  2  3  1  0
  3  4  1  0
  4  5  1  0
  3  6  1  0
  6  7  1  0
  6  8  1  0
M  END
>  <name>  (606) 
1,1-dimethoxy-N,N-dimethylmethanamine

>  <Outcome>  (606) 
1

>  <SMILES>  (606) 
COC(OC)N(C)C

$$$$

     RDKit          2D

  3  3  0  0  0  0  0  0  0  0999 V2000
    0.8660    0.0000    0.0000 C   0  0  0  0  0  0  0  0  0  0  0  0
   -0.4330    0.7500    0.0000 C   0  0  0  0  0  0  0  0  0  0  0  0
   -0.4330   -0.7500    0.0000 N   0  0  0  0  0  0  0  0  0  0  0  0
  1  2  1  0
  2  3  1  0
  3  1  1  0
M  END
>  <name>  (607) 
aziridine

>  <Outcome>  (607) 
2

>  <SMILES>  (607) 
C1CN1

$$$$

     RDKit          2D

 11 11  0  0  0  0  0  0  0  0999 V2000
    0.7299    2.2215    0.0000 C   0  0  0  0  0  0  0  0  0  0  0  0
    0.7299    1.3965    0.0000 C   0  0  0  0  0  0  0  0  0  0  0  0
    1.4444    0.9840    0.0000 C   0  0  0  0  0  0  0  0  0  0  0  0
    1.4444    0.1590    0.0000 C   0  0  0  0  0  0  0  0  0  0  0  0
    0.7299   -0.2535    0.0000 C   0  0  0  0  0  0  0  0  0  0  0  0
    0.7299   -1.0785    0.0000 C   0  0  0  0  0  0  0  0  0  0  0  0
    1.4444   -1.4910    0.0000 C   0  0  0  0  0  0  0  0  0  0  0  0
    0.0154   -1.4910    0.0000 C   0  0  0  0  0  0  0  0  0  0  0  0
    0.0154    0.1590    0.0000 C   0  0  0  0  0  0  0  0  0  0  0  0
   -0.6990   -0.2535    0.0000 O   0  0  0  0  0  0  0  0  0  0  0  0
    0.0154    0.9840    0.0000 C   0  0  0  0  0  0  0  0  0  0  0  0
  1  2  1  0
  2  3  1  0
  3  4  1  0
  4  5  1  0
  5  6  1  0
  6  7  1  0
  6  8  1  0
  5  9  1  0
  9 10  1  0
  9 11  1  0
  2 11  1  0
M  END
>  <name>  (608) 
(??)-neomenthol

>  <Outcome>  (608) 
0

>  <SMILES>  (608) 
CC1CCC(C(C)C)C(O)C1

$$$$

     RDKit          2D

  4  3  0  0  0  0  0  0  0  0999 V2000
    0.0000    0.0000    0.0000 C   0  0  0  0  0  0  0  0  0  0  0  0
    1.2990    0.7500    0.0000 S   0  0  0  0  0  0  0  0  0  0  0  0
    1.2990    2.2500    0.0000 O   0  0  0  0  0  0  0  0  0  0  0  0
    2.5981   -0.0000    0.0000 C   0  0  0  0  0  0  0  0  0  0  0  0
  1  2  1  0
  2  3  2  0
  2  4  1  0
M  END
>  <name>  (609) 
methylsulfinylmethane

>  <Outcome>  (609) 
2

>  <SMILES>  (609) 
CS(C)=O

$$$$

     RDKit          2D

 11 10  0  0  0  0  0  0  0  0999 V2000
    2.9980    2.5559    0.0000 O   0  0  0  0  0  0  0  0  0  0  0  0
    3.7125    2.1434    0.0000 C   0  0  0  0  0  0  0  0  0  0  0  0
    3.7125    1.3184    0.0000 O   0  0  0  0  0  0  0  0  0  0  0  0
    4.4270    2.5559    0.0000 C   0  0  0  0  0  0  0  0  0  0  0  0
    5.1414    2.1434    0.0000 C   0  0  0  0  0  0  0  0  0  0  0  0
    5.8559    2.5559    0.0000 S   0  0  0  0  0  0  0  0  0  0  0  0
    6.5704    2.1434    0.0000 C   0  0  0  0  0  0  0  0  0  0  0  0
    7.2849    2.5559    0.0000 C   0  0  0  0  0  0  0  0  0  0  0  0
    7.9993    2.1434    0.0000 C   0  0  0  0  0  0  0  0  0  0  0  0
    8.7138    2.5559    0.0000 O   0  0  0  0  0  0  0  0  0  0  0  0
    7.9993    1.3184    0.0000 O   0  0  0  0  0  0  0  0  0  0  0  0
  1  2  2  0
  2  3  1  0
  2  4  1  0
  4  5  1  0
  5  6  1  0
  6  7  1  0
  7  8  1  0
  8  9  1  0
  9 10  2  0
  9 11  1  0
M  END
>  <name>  (610) 
3-[(2-carboxyethyl)sulfanyl]propanoic acid

>  <Outcome>  (610) 
0

>  <SMILES>  (610) 
O=C(O)CCSCCC(=O)O

$$$$

     RDKit          2D

 16 16  0  0  0  0  0  0  0  0999 V2000
    3.0000    0.0000    0.0000 C   0  0  0  0  0  0  0  0  0  0  0  0
    1.5000    0.0000    0.0000 C   0  0  0  0  0  0  0  0  0  0  0  0
    0.7500   -1.2990    0.0000 C   0  0  0  0  0  0  0  0  0  0  0  0
   -0.7500   -1.2990    0.0000 C   0  0  0  0  0  0  0  0  0  0  0  0
   -1.5000    0.0000    0.0000 C   0  0  0  0  0  0  0  0  0  0  0  0
   -0.7500    1.2990    0.0000 C   0  0  0  0  0  0  0  0  0  0  0  0
    0.7500    1.2990    0.0000 C   0  0  0  0  0  0  0  0  0  0  0  0
   -1.5000    2.5981    0.0000 O   0  0  0  0  0  0  0  0  0  0  0  0
   -0.7500    3.8971    0.0000 P   0  0  0  0  0  0  0  0  0  0  0  0
    0.0000    5.1962    0.0000 S   0  0  0  0  0  0  0  0  0  0  0  0
    0.5490    3.1471    0.0000 O   0  0  0  0  0  0  0  0  0  0  0  0
    1.8481    3.8971    0.0000 C   0  0  0  0  0  0  0  0  0  0  0  0
   -2.0490    4.6471    0.0000 O   0  0  0  0  0  0  0  0  0  0  0  0
   -2.0490    6.1471    0.0000 C   0  0  0  0  0  0  0  0  0  0  0  0
    1.5000   -2.5981    0.0000 S   0  0  0  0  0  0  0  0  0  0  0  0
    0.7500   -3.8971    0.0000 C   0  0  0  0  0  0  0  0  0  0  0  0
  1  2  1  0
  2  3  2  0
  3  4  1  0
  4  5  2  0
  5  6  1  0
  6  7  2  0
  6  8  1  0
  8  9  1  0
  9 10  2  0
  9 11  1  0
 11 12  1  0
  9 13  1  0
 13 14  1  0
  3 15  1  0
 15 16  1  0
  7  2  1  0
M  END
>  <name>  (611) 
dimethoxy-(3-methyl-4-methylsulfanylphenoxy)-sulfanylidene-lambda5-phosphane

>  <Outcome>  (611) 
2

>  <SMILES>  (611) 
COP(=S)(OC)Oc1ccc(SC)c(C)c1

$$$$

     RDKit          2D

 10  9  0  0  0  0  0  0  0  0999 V2000
    4.0390    1.9628    0.0000 C   0  0  0  0  0  0  0  0  0  0  0  0
    3.2140    1.9628    0.0000 C   0  0  0  0  0  0  0  0  0  0  0  0
    2.8015    1.2483    0.0000 C   0  0  0  0  0  0  0  0  0  0  0  0
    1.9765    1.2483    0.0000 C   0  0  0  0  0  0  0  0  0  0  0  0
    1.5640    0.5338    0.0000 C   0  0  0  0  0  0  0  0  0  0  0  0
    0.7390    0.5338    0.0000 C   0  0  0  0  0  0  0  0  0  0  0  0
    0.3265   -0.1807    0.0000 C   0  0  0  0  0  0  0  0  0  0  0  0
   -0.4985   -0.1807    0.0000 C   0  0  0  0  0  0  0  0  0  0  0  0
   -0.9110   -0.8951    0.0000 C   0  0  0  0  0  0  0  0  0  0  0  0
   -0.4985   -1.6096    0.0000 C   0  0  0  0  0  0  0  0  0  0  0  0
  1  2  1  0
  3  2  1  0
  3  4  2  3
  4  5  1  0
  5  6  1  0
  7  6  1  0
  7  8  2  3
  8  9  1  0
  9 10  2  0
M  END
>  <name>  (612) 
Alkenes, C9-?11, C10-?rich

>  <Outcome>  (612) 
0

>  <SMILES>  (612) 
C=CC=CCCC=CCC

$$$$

     RDKit          2D

 20 20  0  0  0  0  0  0  0  0999 V2000
   -1.4297   -4.1238    0.0000 C   0  0  0  0  0  0  0  0  0  0  0  0
   -0.7152   -3.7113    0.0000 C   0  0  0  0  0  0  0  0  0  0  0  0
   -0.7152   -2.8863    0.0000 C   0  0  0  0  0  0  0  0  0  0  0  0
   -0.0007   -2.4738    0.0000 C   0  0  0  0  0  0  0  0  0  0  0  0
   -0.0007   -1.6488    0.0000 O   0  0  0  0  0  0  0  0  0  0  0  0
    0.7137   -1.2363    0.0000 C   0  0  0  0  0  0  0  0  0  0  0  0
    1.4282   -1.6488    0.0000 O   0  0  0  0  0  0  0  0  0  0  0  0
    0.7137   -0.4113    0.0000 C   0  0  0  0  0  0  0  0  0  0  0  0
   -0.0007    0.0012    0.0000 C   0  0  0  0  0  0  0  0  0  0  0  0
   -0.0007    0.8262    0.0000 C   0  0  0  0  0  0  0  0  0  0  0  0
    0.7137    1.2387    0.0000 C   0  0  0  0  0  0  0  0  0  0  0  0
    1.4282    0.8262    0.0000 C   0  0  0  0  0  0  0  0  0  0  0  0
    1.4282    0.0012    0.0000 C   0  0  0  0  0  0  0  0  0  0  0  0
    2.1427   -0.4113    0.0000 C   0  0  0  0  0  0  0  0  0  0  0  0
    2.1427   -1.2363    0.0000 O   0  0  0  0  0  0  0  0  0  0  0  0
    2.8572    0.0012    0.0000 O   0  0  0  0  0  0  0  0  0  0  0  0
    3.5716   -0.4113    0.0000 C   0  0  0  0  0  0  0  0  0  0  0  0
    4.2861    0.0012    0.0000 C   0  0  0  0  0  0  0  0  0  0  0  0
    5.0006   -0.4113    0.0000 C   0  0  0  0  0  0  0  0  0  0  0  0
    5.7150    0.0012    0.0000 C   0  0  0  0  0  0  0  0  0  0  0  0
  1  2  1  0
  2  3  1  0
  3  4  1  0
  4  5  1  0
  5  6  1  0
  6  7  2  0
  6  8  1  0
  8  9  2  0
  9 10  1  0
 10 11  2  0
 11 12  1  0
 12 13  2  0
  8 13  1  0
 13 14  1  0
 14 15  2  0
 14 16  1  0
 16 17  1  0
 17 18  1  0
 18 19  1  0
 19 20  1  0
M  END
>  <name>  (613) 
1,2-dibutyl benzene-1,2-dicarboxylate

>  <Outcome>  (613) 
0

>  <SMILES>  (613) 
CCCCOC(=O)c1ccccc1C(=O)OCCCC

$$$$

     RDKit          2D

 27 26  0  0  0  0  0  0  0  0999 V2000
   -1.8860    2.1461    0.0000 C   0  0  0  0  0  0  0  0  0  0  0  0
   -2.2985    1.4317    0.0000 C   0  0  0  0  0  0  0  0  0  0  0  0
   -1.8860    0.7172    0.0000 C   0  0  0  0  0  0  0  0  0  0  0  0
   -1.0610    0.7172    0.0000 C   0  0  0  0  0  0  0  0  0  0  0  0
   -0.6485    0.0027    0.0000 Sn  0  0  0  0  0  4  0  0  0  0  0  0
   -1.3629   -0.4098    0.0000 C   0  0  0  0  0  0  0  0  0  0  0  0
   -2.0774    0.0027    0.0000 C   0  0  0  0  0  0  0  0  0  0  0  0
   -2.7919   -0.4098    0.0000 C   0  0  0  0  0  0  0  0  0  0  0  0
   -3.5063    0.0027    0.0000 C   0  0  0  0  0  0  0  0  0  0  0  0
    0.0660    0.4152    0.0000 C   0  0  0  0  0  0  0  0  0  0  0  0
    0.7805    0.0027    0.0000 C   0  0  0  0  0  0  0  0  0  0  0  0
    1.4949    0.4152    0.0000 C   0  0  0  0  0  0  0  0  0  0  0  0
    2.2094    0.0027    0.0000 C   0  0  0  0  0  0  0  0  0  0  0  0
   -0.2360   -0.7117    0.0000 O   0  0  0  0  0  0  0  0  0  0  0  0
   -0.6485   -1.4262    0.0000 Sn  0  0  0  0  0  4  0  0  0  0  0  0
   -1.0610   -2.1407    0.0000 C   0  0  0  0  0  0  0  0  0  0  0  0
   -0.6485   -2.8551    0.0000 C   0  0  0  0  0  0  0  0  0  0  0  0
   -1.0610   -3.5696    0.0000 C   0  0  0  0  0  0  0  0  0  0  0  0
   -0.6485   -4.2841    0.0000 C   0  0  0  0  0  0  0  0  0  0  0  0
   -1.3629   -1.0137    0.0000 C   0  0  0  0  0  0  0  0  0  0  0  0
   -2.0774   -1.4262    0.0000 C   0  0  0  0  0  0  0  0  0  0  0  0
   -2.7919   -1.0137    0.0000 C   0  0  0  0  0  0  0  0  0  0  0  0
   -3.5063   -1.4262    0.0000 C   0  0  0  0  0  0  0  0  0  0  0  0
    0.0660   -1.8387    0.0000 C   0  0  0  0  0  0  0  0  0  0  0  0
    0.0660   -2.6637    0.0000 C   0  0  0  0  0  0  0  0  0  0  0  0
    0.7805   -3.0762    0.0000 C   0  0  0  0  0  0  0  0  0  0  0  0
    0.7805   -3.9012    0.0000 C   0  0  0  0  0  0  0  0  0  0  0  0
  1  2  1  0
  2  3  1  0
  3  4  1  0
  4  5  1  0
  5  6  1  0
  6  7  1  0
  7  8  1  0
  8  9  1  0
  5 10  1  0
 10 11  1  0
 11 12  1  0
 12 13  1  0
  5 14  1  0
 14 15  1  0
 15 16  1  0
 16 17  1  0
 17 18  1  0
 18 19  1  0
 15 20  1  0
 20 21  1  0
 21 22  1  0
 22 23  1  0
 15 24  1  0
 24 25  1  0
 25 26  1  0
 26 27  1  0
M  END
>  <name>  (614) 
tributyl[(tributylstannyl)oxy]stannane

>  <Outcome>  (614) 
1

>  <SMILES>  (614) 
CCCC[Sn](CCCC)(CCCC)O[Sn](CCCC)(CCCC)CCCC

$$$$

     RDKit          2D

 13 12  0  0  0  0  0  0  0  0999 V2000
    2.7901    1.8251    0.0000 C   0  0  0  0  0  0  0  0  0  0  0  0
    2.0756    1.4126    0.0000 C   0  0  0  0  0  0  0  0  0  0  0  0
    1.3612    1.8251    0.0000 O   0  0  0  0  0  0  0  0  0  0  0  0
    0.6467    1.4126    0.0000 Si  0  0  0  0  0  4  0  0  0  0  0  0
   -0.0678    1.0001    0.0000 O   0  0  0  0  0  0  0  0  0  0  0  0
   -0.7822    1.4126    0.0000 C   0  0  0  0  0  0  0  0  0  0  0  0
   -1.4967    1.0001    0.0000 C   0  0  0  0  0  0  0  0  0  0  0  0
    0.2342    2.1271    0.0000 O   0  0  0  0  0  0  0  0  0  0  0  0
   -0.5908    2.1271    0.0000 C   0  0  0  0  0  0  0  0  0  0  0  0
   -1.0033    2.8416    0.0000 C   0  0  0  0  0  0  0  0  0  0  0  0
    1.0592    0.6982    0.0000 O   0  0  0  0  0  0  0  0  0  0  0  0
    0.6467   -0.0163    0.0000 C   0  0  0  0  0  0  0  0  0  0  0  0
   -0.1783   -0.0163    0.0000 C   0  0  0  0  0  0  0  0  0  0  0  0
  1  2  1  0
  2  3  1  0
  3  4  1  0
  4  5  1  0
  5  6  1  0
  6  7  1  0
  4  8  1  0
  8  9  1  0
  9 10  1  0
  4 11  1  0
 11 12  1  0
 12 13  1  0
M  END
>  <name>  (615) 
tetraethyl silicate

>  <Outcome>  (615) 
0

>  <SMILES>  (615) 
CCO[Si](OCC)(OCC)OCC

$$$$

     RDKit          2D

  6  5  0  0  0  0  0  0  0  0999 V2000
    0.0000    0.0000    0.0000 C   0  0  0  0  0  0  0  0  0  0  0  0
    1.2990    0.7500    0.0000 C   0  0  0  0  0  0  0  0  0  0  0  0
    2.5981    1.5000    0.0000 Cl  0  0  0  0  0  0  0  0  0  0  0  0
    2.0490   -0.5490    0.0000 Cl  0  0  0  0  0  0  0  0  0  0  0  0
    0.5490    2.0490    0.0000 Cl  0  0  0  0  0  0  0  0  0  0  0  0
   -1.2990    0.7500    0.0000 Cl  0  0  0  0  0  0  0  0  0  0  0  0
  1  2  1  0
  2  3  1  0
  2  4  1  0
  2  5  1  0
  1  6  1  0
M  END
>  <name>  (616) 
1,1,1,2-tetrachloroethane

>  <Outcome>  (616) 
2

>  <SMILES>  (616) 
ClCC(Cl)(Cl)Cl

$$$$

     RDKit          2D

 23 19  0  0  0  0  0  0  0  0999 V2000
    0.0000    0.0000    0.0000 C   0  0  0  0  0  0  0  0  0  0  0  0
    1.2990    0.7500    0.0000 C   0  0  0  0  0  0  0  0  0  0  0  0
    2.5981   -0.0000    0.0000 N   0  0  0  0  0  0  0  0  0  0  0  0
    3.8971    0.7500    0.0000 C   0  0  0  0  0  0  0  0  0  0  0  0
    5.1962   -0.0000    0.0000 C   0  0  0  0  0  0  0  0  0  0  0  0
    5.1962   -1.5000    0.0000 O   0  0  0  0  0  0  0  0  0  0  0  0
    6.4952    0.7500    0.0000 O   0  0  0  0  0  1  0  0  0  0  0  0
    2.5981   -1.5000    0.0000 C   0  0  0  0  0  0  0  0  0  0  0  0
    1.2990   -2.2500    0.0000 C   0  0  0  0  0  0  0  0  0  0  0  0
    0.0000   -1.5000    0.0000 O   0  0  0  0  0  0  0  0  0  0  0  0
    1.2990   -3.7500    0.0000 O   0  0  0  0  0  1  0  0  0  0  0  0
   -1.2990    0.7500    0.0000 N   0  0  0  0  0  0  0  0  0  0  0  0
   -2.5981    0.0000    0.0000 C   0  0  0  0  0  0  0  0  0  0  0  0
   -3.8971    0.7500    0.0000 C   0  0  0  0  0  0  0  0  0  0  0  0
   -3.8971    2.2500    0.0000 O   0  0  0  0  0  0  0  0  0  0  0  0
   -5.1962    0.0000    0.0000 O   0  0  0  0  0  1  0  0  0  0  0  0
   -1.2990    2.2500    0.0000 C   0  0  0  0  0  0  0  0  0  0  0  0
    0.0000    3.0000    0.0000 C   0  0  0  0  0  0  0  0  0  0  0  0
    1.2990    2.2500    0.0000 O   0  0  0  0  0  0  0  0  0  0  0  0
    0.0000    4.5000    0.0000 O   0  0  0  0  0  1  0  0  0  0  0  0
    0.0000    5.5000    0.0000 Na  0  0  0  0  0 15  0  0  0  0  0  0
    0.0000    6.5000    0.0000 Na  0  0  0  0  0 15  0  0  0  0  0  0
    0.0000    7.5000    0.0000 Cu  0  0  0  0  0 15  0  0  0  0  0  0
  1  2  1  0
  2  3  1  0
  3  4  1  0
  4  5  1  0
  5  6  2  0
  5  7  1  0
  3  8  1  0
  8  9  1  0
  9 10  2  0
  9 11  1  0
  1 12  1  0
 12 13  1  0
 13 14  1  0
 14 15  2  0
 14 16  1  0
 12 17  1  0
 17 18  1  0
 18 19  2  0
 18 20  1  0
M  CHG  7   7  -1  11  -1  16  -1  20  -1  21   1  22   1  23   2
M  END
>  <name>  (617) 
copper;disodium;2-[2-[bis(carboxylatomethyl)amino]ethyl-(carboxylatomethyl)amino]acetate

>  <Outcome>  (617) 
2

>  <SMILES>  (617) 
O=C([O-])CN(CCN(CC(=O)[O-])CC(=O)[O-])CC(=O)[O-].[Cu+2].[Na+].[Na+]

$$$$

     RDKit          2D

 24 25  0  0  0  0  0  0  0  0999 V2000
    1.4355   -5.8426    0.0000 C   0  0  0  0  0  0  0  0  0  0  0  0
    2.1500   -5.4301    0.0000 C   0  0  0  0  0  0  0  0  0  0  0  0
    2.8645   -5.0176    0.0000 C   0  0  0  0  0  0  0  0  0  0  0  0
    3.5790   -5.4301    0.0000 O   0  0  0  0  0  0  0  0  0  0  0  0
    4.2934   -5.0176    0.0000 S   0  0  0  0  0  0  0  0  0  0  0  0
    4.2934   -4.1926    0.0000 O   0  0  0  0  0  0  0  0  0  0  0  0
    5.0079   -5.4301    0.0000 O   0  0  0  0  0  0  0  0  0  0  0  0
    5.7224   -5.0176    0.0000 C   0  0  0  0  0  0  0  0  0  0  0  0
    5.7224   -4.1926    0.0000 C   0  0  0  0  0  0  0  0  0  0  0  0
    6.4368   -3.7801    0.0000 C   0  0  0  0  0  0  0  0  0  0  0  0
    7.1513   -4.1926    0.0000 C   0  0  0  0  0  0  0  0  0  0  0  0
    7.1513   -5.0176    0.0000 C   0  0  0  0  0  0  0  0  0  0  0  0
    6.4368   -5.4301    0.0000 C   0  0  0  0  0  0  0  0  0  0  0  0
    6.4368   -6.2551    0.0000 O   0  0  0  0  0  0  0  0  0  0  0  0
    7.1513   -6.6676    0.0000 C   0  0  0  0  0  0  0  0  0  0  0  0
    7.8658   -6.2551    0.0000 C   0  0  0  0  0  0  0  0  0  0  0  0
    8.5803   -6.6676    0.0000 C   0  0  0  0  0  0  0  0  0  0  0  0
    8.5803   -7.4926    0.0000 C   0  0  0  0  0  0  0  0  0  0  0  0
    9.2947   -7.9051    0.0000 C   0  0  0  0  0  0  0  0  0  0  0  0
   10.0092   -8.3176    0.0000 C   0  0  0  0  0  0  0  0  0  0  0  0
    8.8822   -8.6196    0.0000 C   0  0  0  0  0  0  0  0  0  0  0  0
    9.7072   -7.1906    0.0000 C   0  0  0  0  0  0  0  0  0  0  0  0
    7.8658   -7.9051    0.0000 C   0  0  0  0  0  0  0  0  0  0  0  0
    7.1513   -7.4926    0.0000 C   0  0  0  0  0  0  0  0  0  0  0  0
  1  2  3  0
  2  3  1  0
  3  4  1  0
  4  5  1  0
  5  6  2  0
  5  7  1  0
  7  8  1  0
  8  9  1  0
  9 10  1  0
 10 11  1  0
 11 12  1  0
 12 13  1  0
  8 13  1  0
 13 14  1  0
 14 15  1  0
 15 16  2  0
 16 17  1  0
 17 18  2  0
 18 19  1  0
 19 20  1  0
 19 21  1  0
 19 22  1  0
 18 23  1  0
 23 24  2  0
 15 24  1  0
M  END
>  <name>  (618) 
2-(4-tert-butylphenoxy)cyclohexyl prop-2-yn-1-yl sulfite

>  <Outcome>  (618) 
1

>  <SMILES>  (618) 
C#CCOS(=O)OC1CCCCC1Oc1ccc(C(C)(C)C)cc1

$$$$

     RDKit          2D

  9  8  0  0  0  0  0  0  0  0999 V2000
    0.0000    0.0000    0.0000 C   0  0  0  0  0  0  0  0  0  0  0  0
    1.2990    0.7500    0.0000 C   0  0  0  0  0  0  0  0  0  0  0  0
    2.5981   -0.0000    0.0000 O   0  0  0  0  0  0  0  0  0  0  0  0
    3.8971    0.7500    0.0000 C   0  0  0  0  0  0  0  0  0  0  0  0
    3.8971    2.2500    0.0000 O   0  0  0  0  0  0  0  0  0  0  0  0
    5.1962   -0.0000    0.0000 C   0  0  0  0  0  0  0  0  0  0  0  0
    6.4952    0.7500    0.0000 C   0  0  0  0  0  0  0  0  0  0  0  0
    5.1962   -1.5000    0.0000 C   0  0  0  0  0  0  0  0  0  0  0  0
    5.1962   -3.0000    0.0000 N   0  0  0  0  0  0  0  0  0  0  0  0
  1  2  1  0
  2  3  1  0
  3  4  1  0
  4  5  2  0
  4  6  1  0
  6  7  2  0
  6  8  1  0
  8  9  3  0
M  END
>  <name>  (619) 
ethyl 2-cyanoprop-2-enoate

>  <Outcome>  (619) 
2

>  <SMILES>  (619) 
C=C(C#N)C(=O)OCC

$$$$

     RDKit          2D

  6  5  0  0  0  0  0  0  0  0999 V2000
    1.2403    0.7145    0.0000 C   0  0  0  0  0  0  0  0  0  0  0  0
    0.8278    0.0000    0.0000 C   0  0  0  0  0  0  0  0  0  0  0  0
    0.0028    0.0000    0.0000 C   0  0  0  0  0  0  0  0  0  0  0  0
   -0.4097   -0.7145    0.0000 C   0  0  0  0  0  0  0  0  0  0  0  0
    0.0028   -1.4289    0.0000 C   0  0  0  0  0  0  0  0  0  0  0  0
    0.4153   -2.1434    0.0000 N   0  0  0  0  0  0  0  0  0  0  0  0
  2  1  1  0
  2  3  2  3
  3  4  1  0
  4  5  1  0
  5  6  3  0
M  END
>  <name>  (620) 
pent-3-enenitrile

>  <Outcome>  (620) 
1

>  <SMILES>  (620) 
CC=CCC#N

$$$$

     RDKit          2D

 20 21  0  0  0  0  0  0  0  0999 V2000
    0.1272   -0.3971    0.0000 C   0  0  0  0  0  0  0  0  0  0  0  0
    0.8417   -0.8096    0.0000 C   0  0  0  0  0  0  0  0  0  0  0  0
    0.8417   -1.6346    0.0000 N   0  0  0  0  0  0  0  0  0  0  0  0
    1.5561   -2.0471    0.0000 C   0  0  0  0  0  0  0  0  0  0  0  0
    1.5561   -2.8721    0.0000 O   0  0  0  0  0  0  0  0  0  0  0  0
    2.2706   -1.6346    0.0000 N   0  0  0  0  0  0  0  0  0  0  0  0
    2.2706   -0.8096    0.0000 C   0  0  0  0  0  0  0  0  0  0  0  0
    2.9851   -0.3971    0.0000 C   0  0  0  0  0  0  0  0  0  0  0  0
    2.9851   -2.0471    0.0000 C   0  0  0  0  0  0  0  0  0  0  0  0
    2.9851   -2.8721    0.0000 C   0  0  0  0  0  0  0  0  0  0  0  0
    3.6996   -3.2846    0.0000 C   0  0  0  0  0  0  0  0  0  0  0  0
    4.4140   -2.8721    0.0000 C   0  0  0  0  0  0  0  0  0  0  0  0
    4.4140   -2.0471    0.0000 C   0  0  0  0  0  0  0  0  0  0  0  0
    3.6996   -1.6346    0.0000 C   0  0  0  0  0  0  0  0  0  0  0  0
    0.1272   -2.0471    0.0000 C   0  0  0  0  0  0  0  0  0  0  0  0
   -0.5873   -1.6346    0.0000 C   0  0  0  0  0  0  0  0  0  0  0  0
   -1.3017   -2.0471    0.0000 C   0  0  0  0  0  0  0  0  0  0  0  0
   -1.3017   -2.8721    0.0000 C   0  0  0  0  0  0  0  0  0  0  0  0
   -0.5873   -3.2846    0.0000 C   0  0  0  0  0  0  0  0  0  0  0  0
    0.1272   -2.8721    0.0000 C   0  0  0  0  0  0  0  0  0  0  0  0
  1  2  1  0
  2  3  1  0
  3  4  1  0
  4  5  2  0
  4  6  1  0
  6  7  1  0
  7  8  1  0
  6  9  1  0
 10  9  2  0
 11 10  1  0
 12 11  2  0
 13 12  1  0
 14 13  2  0
  3 15  1  0
 16 15  2  0
 17 16  1  0
 18 17  2  0
 19 18  1  0
 20 19  2  0
  9 14  1  0
 15 20  1  0
M  END
>  <name>  (621) 
N,N-Diethylcarbanilide

>  <Outcome>  (621) 
0

>  <SMILES>  (621) 
CCN(C(=O)N(CC)c1ccccc1)c1ccccc1

$$$$

     RDKit          2D

  7  7  0  0  0  0  0  0  0  0999 V2000
    1.2760    0.0000    0.0000 C   0  0  0  0  0  0  0  0  0  0  0  0
    0.3943    1.2135    0.0000 C   0  0  0  0  0  0  0  0  0  0  0  0
   -1.0323    0.7500    0.0000 O   0  0  0  0  0  0  0  0  0  0  0  0
   -1.0323   -0.7500    0.0000 C   0  0  0  0  0  0  0  0  0  0  0  0
    0.3943   -1.2135    0.0000 C   0  0  0  0  0  0  0  0  0  0  0  0
    0.8578   -2.6401    0.0000 C   0  0  0  0  0  0  0  0  0  0  0  0
   -0.1459   -3.7548    0.0000 O   0  0  0  0  0  0  0  0  0  0  0  0
  1  2  1  0
  2  3  1  0
  3  4  1  0
  4  5  1  0
  5  6  1  0
  6  7  2  0
  5  1  1  0
M  END
>  <name>  (622) 
oxolane-3-carbaldehyde

>  <Outcome>  (622) 
2

>  <SMILES>  (622) 
O=CC1CCOC1

$$$$

     RDKit          2D

 10  9  0  0  0  0  0  0  0  0999 V2000
    0.0000    0.0000    0.0000 C   0  0  0  0  0  0  0  0  0  0  0  0
    1.2990    0.7500    0.0000 C   0  0  0  0  0  0  0  0  0  0  0  0
    2.5981   -0.0000    0.0000 O   0  0  0  0  0  0  0  0  0  0  0  0
    3.8971    0.7500    0.0000 C   0  0  0  0  0  0  0  0  0  0  0  0
    3.8971    2.2500    0.0000 O   0  0  0  0  0  0  0  0  0  0  0  0
    5.1962   -0.0000    0.0000 C   0  0  0  0  0  0  0  0  0  0  0  0
    6.4952    0.7500    0.0000 C   0  0  0  0  0  0  0  0  0  0  0  0
    6.4952    2.2500    0.0000 O   0  0  0  0  0  0  0  0  0  0  0  0
    7.7942   -0.0000    0.0000 C   0  0  0  0  0  0  0  0  0  0  0  0
    9.0933    0.7500    0.0000 Cl  0  0  0  0  0  0  0  0  0  0  0  0
  1  2  1  0
  2  3  1  0
  3  4  1  0
  4  5  2  0
  4  6  1  0
  6  7  1  0
  7  8  2  0
  7  9  1  0
  9 10  1  0
M  END
>  <name>  (623) 
ethyl 4-chloro-3-oxobutanoate

>  <Outcome>  (623) 
2

>  <SMILES>  (623) 
CCOC(=O)CC(=O)CCl

$$$$

     RDKit          2D

  7  6  0  0  0  0  0  0  0  0999 V2000
   -0.0341    0.4350    0.0000 C   0  0  0  0  0  0  0  0  0  0  0  0
    0.6804    0.0225    0.0000 C   0  0  0  0  0  0  0  0  0  0  0  0
    1.3949    0.4350    0.0000 C   0  0  0  0  0  0  0  0  0  0  0  0
    2.1093    0.0225    0.0000 C   0  0  0  0  0  0  0  0  0  0  0  0
    2.8238    0.4350    0.0000 C   0  0  0  0  0  0  0  0  0  0  0  0
    3.5383    0.0225    0.0000 C   0  0  0  0  0  0  0  0  0  0  0  0
    4.2528    0.4350    0.0000 O   0  0  0  0  0  0  0  0  0  0  0  0
  1  2  1  0
  2  3  1  0
  3  4  1  0
  4  5  1  0
  5  6  1  0
  6  7  1  0
M  END
>  <name>  (624) 
1-Hexanol

>  <Outcome>  (624) 
0

>  <SMILES>  (624) 
CCCCCCO

$$$$

     RDKit          2D

 16 16  0  0  0  0  0  0  0  0999 V2000
    1.4290   -4.9490    0.0000 C   0  0  0  0  0  0  0  0  0  0  0  0
    2.1434   -5.3615    0.0000 C   0  0  0  0  0  0  0  0  0  0  0  0
    2.8579   -4.9490    0.0000 C   0  0  0  0  0  0  0  0  0  0  0  0
    3.5724   -5.3615    0.0000 C   0  0  0  0  0  0  0  0  0  0  0  0
    4.2868   -4.9490    0.0000 O   0  0  0  0  0  0  0  0  0  0  0  0
    5.0013   -5.3615    0.0000 C   0  0  0  0  0  0  0  0  0  0  0  0
    5.7158   -4.9490    0.0000 C   0  0  0  0  0  0  0  0  0  0  0  0
    6.4303   -5.3615    0.0000 O   0  0  0  0  0  0  0  0  0  0  0  0
    7.1447   -4.9490    0.0000 C   0  0  0  0  0  0  0  0  0  0  0  0
    7.1447   -4.1240    0.0000 O   0  0  0  0  0  0  0  0  0  0  0  0
    7.8592   -5.3615    0.0000 C   0  0  0  0  0  0  0  0  0  0  0  0
    8.5737   -4.9490    0.0000 C   0  0  0  0  0  0  0  0  0  0  0  0
    9.2881   -5.3615    0.0000 C   0  0  0  0  0  0  0  0  0  0  0  0
    9.2881   -6.1865    0.0000 C   0  0  0  0  0  0  0  0  0  0  0  0
    8.5737   -6.5990    0.0000 C   0  0  0  0  0  0  0  0  0  0  0  0
    7.8592   -6.1865    0.0000 C   0  0  0  0  0  0  0  0  0  0  0  0
  1  2  1  0
  2  3  1  0
  3  4  1  0
  4  5  1  0
  5  6  1  0
  6  7  1  0
  7  8  1  0
  8  9  1  0
  9 10  2  0
  9 11  1  0
 11 12  2  0
 12 13  1  0
 13 14  2  0
 14 15  1  0
 15 16  2  0
 11 16  1  0
M  END
>  <name>  (625) 
2-butoxyethyl benzoate

>  <Outcome>  (625) 
0

>  <SMILES>  (625) 
CCCCOCCOC(=O)c1ccccc1

$$$$

     RDKit          2D

 14 14  0  0  0  0  0  0  0  0999 V2000
    1.5000    0.0000    0.0000 C   0  0  0  0  0  0  0  0  0  0  0  0
    0.7500   -1.2990    0.0000 C   0  0  0  0  0  0  0  0  0  0  0  0
   -0.7500   -1.2990    0.0000 C   0  0  0  0  0  0  0  0  0  0  0  0
   -1.5000    0.0000    0.0000 C   0  0  0  0  0  0  0  0  0  0  0  0
   -0.7500    1.2990    0.0000 C   0  0  0  0  0  0  0  0  0  0  0  0
    0.7500    1.2990    0.0000 C   0  0  0  0  0  0  0  0  0  0  0  0
   -3.0000    0.0000    0.0000 C   0  0  0  0  0  0  0  0  0  0  0  0
   -3.7500    1.2990    0.0000 C   0  0  0  0  0  0  0  0  0  0  0  0
   -5.2500    1.2990    0.0000 C   0  0  0  0  0  0  0  0  0  0  0  0
   -6.0000    0.0000    0.0000 C   0  0  0  0  0  0  0  0  0  0  0  0
   -5.2500   -1.2990    0.0000 C   0  0  0  0  0  0  0  0  0  0  0  0
   -3.7500   -1.2990    0.0000 C   0  0  0  0  0  0  0  0  0  0  0  0
   -3.0000   -2.5981    0.0000 O   0  0  0  0  0  1  0  0  0  0  0  0
    0.0000    2.2990    0.0000 Na  0  0  0  0  0 15  0  0  0  0  0  0
  1  2  2  0
  2  3  1  0
  3  4  2  0
  4  5  1  0
  5  6  2  0
  4  7  1  0
  7  8  2  0
  8  9  1  0
  9 10  2  0
 10 11  1  0
 11 12  2  0
 12 13  1  0
  6  1  1  0
 12  7  1  0
M  CHG  2  13  -1  14   1
M  END
>  <name>  (626) 
sodium;2-phenylphenolate

>  <Outcome>  (626) 
2

>  <SMILES>  (626) 
[Na+].[O-]c1ccccc1-c1ccccc1

$$$$

     RDKit          2D

 30 32  0  0  0  0  0  0  0  0999 V2000
    0.0641   -4.9672    0.0000 C   0  0  0  0  0  0  0  0  0  0  0  0
    0.7786   -5.3797    0.0000 O   0  0  0  0  0  0  0  0  0  0  0  0
    0.7786   -6.2047    0.0000 C   0  0  0  0  0  0  0  0  0  0  0  0
    1.4931   -6.6172    0.0000 C   0  0  0  0  0  0  0  0  0  0  0  0
    1.4931   -7.4422    0.0000 C   0  0  0  0  0  0  0  0  0  0  0  0
    0.7786   -7.8547    0.0000 C   0  0  0  0  0  0  0  0  0  0  0  0
    0.7786   -8.6797    0.0000 N   0  0  0  0  0  0  0  0  0  0  0  0
    1.4931   -9.0922    0.0000 N   0  0  0  0  0  0  0  0  0  0  0  0
    1.4931   -9.9172    0.0000 C   0  0  0  0  0  0  0  0  0  0  0  0
    2.2076  -10.3297    0.0000 C   0  0  0  0  0  0  0  0  0  0  0  0
    2.2076  -11.1547    0.0000 C   0  0  0  0  0  0  0  0  0  0  0  0
    1.4931  -11.5672    0.0000 C   0  0  0  0  0  0  0  0  0  0  0  0
    1.4931  -12.3922    0.0000 N   0  0  0  0  0  0  0  0  0  0  0  0
    0.7786  -12.8047    0.0000 N   0  0  0  0  0  0  0  0  0  0  0  0
    0.7786  -13.6297    0.0000 C   0  0  0  0  0  0  0  0  0  0  0  0
    1.4931  -14.0422    0.0000 C   0  0  0  0  0  0  0  0  0  0  0  0
    1.4931  -14.8672    0.0000 C   0  0  0  0  0  0  0  0  0  0  0  0
    0.7786  -15.2797    0.0000 C   0  0  0  0  0  0  0  0  0  0  0  0
    0.0641  -14.8672    0.0000 C   0  0  0  0  0  0  0  0  0  0  0  0
   -0.6503  -15.2797    0.0000 S   0  0  0  0  0  0  0  0  0  0  0  0
   -1.3648  -15.6922    0.0000 O   0  0  0  0  0  0  0  0  0  0  0  0
   -1.0628  -14.5652    0.0000 O   0  0  0  0  0  0  0  0  0  0  0  0
   -0.2378  -15.9942    0.0000 O   0  0  0  0  0  0  0  0  0  0  0  0
    0.0641  -14.0422    0.0000 C   0  0  0  0  0  0  0  0  0  0  0  0
    0.7786  -11.1547    0.0000 C   0  0  0  0  0  0  0  0  0  0  0  0
    0.7786  -10.3297    0.0000 C   0  0  0  0  0  0  0  0  0  0  0  0
    0.0641   -9.9172    0.0000 O   0  0  0  0  0  0  0  0  0  0  0  0
    0.0641   -9.0922    0.0000 C   0  0  0  0  0  0  0  0  0  0  0  0
    0.0641   -7.4422    0.0000 C   0  0  0  0  0  0  0  0  0  0  0  0
    0.0641   -6.6172    0.0000 C   0  0  0  0  0  0  0  0  0  0  0  0
  1  2  1  0
  2  3  1  0
  3  4  2  0
  4  5  1  0
  5  6  2  0
  7  6  1  0
  7  8  2  3
  8  9  1  0
  9 10  2  0
 10 11  1  0
 11 12  2  0
 13 12  1  0
 13 14  2  3
 14 15  1  0
 15 16  2  0
 16 17  1  0
 17 18  2  0
 18 19  1  0
 19 20  1  0
 20 21  2  0
 20 22  2  0
 20 23  1  0
 19 24  2  0
 15 24  1  0
 12 25  1  0
 25 26  2  0
  9 26  1  0
 26 27  1  0
 27 28  1  0
  6 29  1  0
 29 30  2  0
  3 30  1  0
M  END
>  <name>  (627) 
sodium 3-({3-methoxy-4-[(4-methoxyphenyl)diazenyl]phenyl}diazenyl)benzenesulfonate

>  <Outcome>  (627) 
1

>  <SMILES>  (627) 
COc1ccc(N=Nc2ccc(N=Nc3cccc(S(=O)(=O)O)c3)cc2OC)cc1

$$$$

     RDKit          2D

 16 16  0  0  0  0  0  0  0  0999 V2000
    5.2500   -1.2990    0.0000 C   0  0  0  0  0  0  0  0  0  0  0  0
    3.7500   -1.2990    0.0000 C   0  0  0  0  0  0  0  0  0  0  0  0
    3.0000    0.0000    0.0000 N   0  0  0  0  0  0  0  0  0  0  0  0
    1.5000    0.0000    0.0000 C   0  0  0  0  0  0  0  0  0  0  0  0
    0.7500   -1.2990    0.0000 N   0  0  0  0  0  0  0  0  0  0  0  0
   -0.7500   -1.2990    0.0000 C   0  0  0  0  0  0  0  0  0  0  0  0
   -1.5000    0.0000    0.0000 N   0  0  0  0  0  0  0  0  0  0  0  0
   -0.7500    1.2990    0.0000 C   0  0  0  0  0  0  0  0  0  0  0  0
    0.7500    1.2990    0.0000 N   0  0  0  0  0  0  0  0  0  0  0  0
   -1.5000    2.5981    0.0000 S   0  0  0  0  0  0  0  0  0  0  0  0
   -0.7500    3.8971    0.0000 C   0  0  0  0  0  0  0  0  0  0  0  0
   -1.5000   -2.5981    0.0000 N   0  0  0  0  0  0  0  0  0  0  0  0
   -3.0000   -2.5981    0.0000 C   0  0  0  0  0  0  0  0  0  0  0  0
   -3.0000   -4.0981    0.0000 C   0  0  0  0  0  0  0  0  0  0  0  0
   -3.0000   -1.0981    0.0000 C   0  0  0  0  0  0  0  0  0  0  0  0
   -4.5000   -2.5981    0.0000 C   0  0  0  0  0  0  0  0  0  0  0  0
  1  2  1  0
  2  3  1  0
  3  4  1  0
  4  5  2  0
  5  6  1  0
  6  7  2  0
  7  8  1  0
  8  9  2  0
  8 10  1  0
 10 11  1  0
  6 12  1  0
 12 13  1  0
 13 14  1  0
 13 15  1  0
 13 16  1  0
  9  4  1  0
M  END
>  <name>  (628) 
2-N-tert-butyl-4-N-ethyl-6-methylsulfanyl-1,3,5-triazine-2,4-diamine

>  <Outcome>  (628) 
2

>  <SMILES>  (628) 
CCNc1nc(NC(C)(C)C)nc(SC)n1

$$$$

     RDKit          2D

  6  5  0  0  0  0  0  0  0  0999 V2000
    1.2375    0.7145    0.0000 C   0  0  0  0  0  0  0  0  0  0  0  0
    0.8250   -0.0000    0.0000 C   0  0  0  0  0  0  0  0  0  0  0  0
    1.2375   -0.7145    0.0000 C   0  0  0  0  0  0  0  0  0  0  0  0
   -0.0000   -0.0000    0.0000 C   0  0  0  0  0  0  0  0  0  0  0  0
   -0.4125   -0.7145    0.0000 C   0  0  0  0  0  0  0  0  0  0  0  0
   -0.0000   -1.4289    0.0000 O   0  0  0  0  0  0  0  0  0  0  0  0
  1  2  1  0
  2  3  1  0
  2  4  2  0
  4  5  1  0
  5  6  2  0
M  END
>  <name>  (629) 
3-methylbut-2-enal

>  <Outcome>  (629) 
1

>  <SMILES>  (629) 
CC(C)=CC=O

$$$$

     RDKit          2D

 17 16  0  0  0  0  0  0  0  0999 V2000
    5.7860    0.7883    0.0000 O   0  0  0  0  0  0  0  0  0  0  0  0
    5.0715    1.2008    0.0000 C   0  0  0  0  0  0  0  0  0  0  0  0
    4.3570    0.7883    0.0000 C   0  0  0  0  0  0  0  0  0  0  0  0
    3.9445    1.5027    0.0000 C   0  0  0  0  0  0  0  0  0  0  0  0
    3.1195    1.5027    0.0000 O   0  0  0  0  0  0  0  0  0  0  0  0
    4.7695    0.0738    0.0000 C   0  0  0  0  0  0  0  0  0  0  0  0
    4.3570   -0.6407    0.0000 O   0  0  0  0  0  0  0  0  0  0  0  0
    3.6426    0.3758    0.0000 C   0  0  0  0  0  0  0  0  0  0  0  0
    2.9281    0.7883    0.0000 O   0  0  0  0  0  0  0  0  0  0  0  0
    2.2136    0.3758    0.0000 C   0  0  0  0  0  0  0  0  0  0  0  0
    1.4991    0.7883    0.0000 C   0  0  0  0  0  0  0  0  0  0  0  0
    0.7847    1.2008    0.0000 C   0  0  0  0  0  0  0  0  0  0  0  0
    0.0702    0.7883    0.0000 O   0  0  0  0  0  0  0  0  0  0  0  0
    1.9116    1.5027    0.0000 C   0  0  0  0  0  0  0  0  0  0  0  0
    1.4991    2.2172    0.0000 O   0  0  0  0  0  0  0  0  0  0  0  0
    1.0866    0.0738    0.0000 C   0  0  0  0  0  0  0  0  0  0  0  0
    0.2616    0.0738    0.0000 O   0  0  0  0  0  0  0  0  0  0  0  0
  1  2  1  0
  2  3  1  0
  3  4  1  0
  4  5  1  0
  3  6  1  0
  6  7  1  0
  3  8  1  0
  8  9  1  0
  9 10  1  0
 10 11  1  0
 11 12  1  0
 12 13  1  0
 11 14  1  0
 14 15  1  0
 11 16  1  0
 16 17  1  0
M  END
>  <name>  (630) 
2-{[3-hydroxy-2,2-bis(hydroxymethyl)propoxy]methyl}-2-(hydroxymethyl)propane-1,3-diol

>  <Outcome>  (630) 
0

>  <SMILES>  (630) 
OCC(CO)(CO)COCC(CO)(CO)CO

$$$$

     RDKit          2D

  8  8  0  0  0  0  0  0  0  0999 V2000
    0.6877    2.0727    0.0000 C   0  0  0  0  0  0  0  0  0  0  0  0
    0.6877    1.2477    0.0000 C   0  0  0  0  0  0  0  0  0  0  0  0
    1.4022    0.8352    0.0000 C   0  0  0  0  0  0  0  0  0  0  0  0
    1.4022    0.0102    0.0000 C   0  0  0  0  0  0  0  0  0  0  0  0
    0.6877   -0.4023    0.0000 C   0  0  0  0  0  0  0  0  0  0  0  0
   -0.0268    0.0102    0.0000 C   0  0  0  0  0  0  0  0  0  0  0  0
   -0.0268    0.8352    0.0000 C   0  0  0  0  0  0  0  0  0  0  0  0
   -0.7412    1.2477    0.0000 C   0  0  0  0  0  0  0  0  0  0  0  0
  1  2  1  0
  2  3  2  0
  3  4  1  0
  4  5  2  0
  5  6  1  0
  6  7  2  0
  2  7  1  0
  7  8  1  0
M  END
>  <name>  (631) 
1,2-xylene

>  <Outcome>  (631) 
0

>  <SMILES>  (631) 
Cc1ccccc1C

$$$$

     RDKit          2D

  6  5  0  0  0  0  0  0  0  0999 V2000
    0.0000    0.0000    0.0000 C   0  0  0  0  0  0  0  0  0  0  0  0
    1.2990    0.7500    0.0000 C   0  0  0  0  0  0  0  0  0  0  0  0
    2.5981   -0.0000    0.0000 C   0  0  0  0  0  0  0  0  0  0  0  0
    1.2990    2.2500    0.0000 C   0  0  0  0  0  0  0  0  0  0  0  0
   -0.0000    3.0000    0.0000 O   0  0  0  0  0  0  0  0  0  0  0  0
    2.5981    3.0000    0.0000 C   0  0  0  0  0  0  0  0  0  0  0  0
  1  2  1  0
  2  3  2  0
  2  4  1  0
  4  5  2  0
  4  6  1  0
M  END
>  <name>  (632) 
3-methylbut-3-en-2-one

>  <Outcome>  (632) 
2

>  <SMILES>  (632) 
C=C(C)C(C)=O

$$$$

     RDKit          2D

 10 12  0  0  0  0  0  0  0  0999 V2000
   -1.1322   -0.1838    0.0000 C   0  0  0  0  0  0  0  0  0  0  0  0
   -1.6171   -0.8512    0.0000 C   0  0  0  0  0  0  0  0  0  0  0  0
   -1.1322   -1.5187    0.0000 C   0  0  0  0  0  0  0  0  0  0  0  0
   -0.3475   -1.2637    0.0000 C   0  0  0  0  0  0  0  0  0  0  0  0
    0.3669   -1.6762    0.0000 C   0  0  0  0  0  0  0  0  0  0  0  0
    0.5732   -0.8512    0.0000 C   0  0  0  0  0  0  0  0  0  0  0  0
    0.3669   -0.0262    0.0000 C   0  0  0  0  0  0  0  0  0  0  0  0
    1.0814   -0.4387    0.0000 C   0  0  0  0  0  0  0  0  0  0  0  0
    1.0814   -1.2637    0.0000 C   0  0  0  0  0  0  0  0  0  0  0  0
   -0.3475   -0.4387    0.0000 C   0  0  0  0  0  0  0  0  0  0  0  0
  2  1  1  0
  3  2  2  0
  4  3  1  0
  4  5  1  0
  6  5  1  0
  7  6  1  0
  8  7  1  0
  9  8  2  0
  7 10  1  0
  1 10  1  0
 10  4  1  0
  5  9  1  0
M  END
>  <name>  (633) 
Dicyclopentadiene

>  <Outcome>  (633) 
1

>  <SMILES>  (633) 
C1=CC2C3C=CC(C3)C2C1

$$$$

     RDKit          2D

  4  3  0  0  0  0  0  0  0  0999 V2000
    2.0609   -0.7173    0.0000 C   0  0  0  0  0  0  0  0  0  0  0  0
    1.2359   -0.7173    0.0000 C   0  0  0  0  0  0  0  0  0  0  0  0
    0.8234   -0.0028    0.0000 C   0  0  0  0  0  0  0  0  0  0  0  0
   -0.0016   -0.0028    0.0000 N   0  0  0  0  0  0  0  0  0  0  0  0
  1  2  2  0
  2  3  1  0
  3  4  1  0
M  END
>  <name>  (634) 
prop-2-en-1-amine

>  <Outcome>  (634) 
1

>  <SMILES>  (634) 
C=CCN

$$$$

     RDKit          2D

 21 21  0  0  0  0  0  0  0  0999 V2000
    8.2500   -9.0933    0.0000 C   0  0  0  0  0  0  0  0  0  0  0  0
    7.5000   -7.7942    0.0000 C   0  0  0  0  0  0  0  0  0  0  0  0
    8.2500   -6.4952    0.0000 C   0  0  0  0  0  0  0  0  0  0  0  0
    7.5000   -5.1962    0.0000 C   0  0  0  0  0  0  0  0  0  0  0  0
    8.2500   -3.8971    0.0000 C   0  0  0  0  0  0  0  0  0  0  0  0
    9.7500   -3.8971    0.0000 C   0  0  0  0  0  0  0  0  0  0  0  0
   10.5000   -5.1962    0.0000 C   0  0  0  0  0  0  0  0  0  0  0  0
    7.5000   -2.5981    0.0000 C   0  0  0  0  0  0  0  0  0  0  0  0
    6.0000   -2.5981    0.0000 O   0  0  0  0  0  0  0  0  0  0  0  0
    5.2500   -1.2990    0.0000 C   0  0  0  0  0  0  0  0  0  0  0  0
    6.0000    0.0000    0.0000 O   0  0  0  0  0  0  0  0  0  0  0  0
    3.7500   -1.2990    0.0000 C   0  0  0  0  0  0  0  0  0  0  0  0
    3.0000    0.0000    0.0000 C   0  0  0  0  0  0  0  0  0  0  0  0
    1.5000    0.0000    0.0000 C   0  0  0  0  0  0  0  0  0  0  0  0
    0.7500   -1.2990    0.0000 C   0  0  0  0  0  0  0  0  0  0  0  0
   -0.7500   -1.2990    0.0000 C   0  0  0  0  0  0  0  0  0  0  0  0
   -1.5000    0.0000    0.0000 C   0  0  0  0  0  0  0  0  0  0  0  0
   -0.7500    1.2990    0.0000 C   0  0  0  0  0  0  0  0  0  0  0  0
    0.7500    1.2990    0.0000 C   0  0  0  0  0  0  0  0  0  0  0  0
   -3.0000    0.0000    0.0000 O   0  0  0  0  0  0  0  0  0  0  0  0
   -3.7500    1.2990    0.0000 C   0  0  0  0  0  0  0  0  0  0  0  0
  1  2  1  0
  2  3  1  0
  3  4  1  0
  4  5  1  0
  5  6  1  0
  6  7  1  0
  5  8  1  0
  8  9  1  0
  9 10  1  0
 10 11  2  0
 10 12  1  0
 12 13  2  3
 13 14  1  0
 14 15  2  0
 15 16  1  0
 16 17  2  0
 17 18  1  0
 18 19  2  0
 17 20  1  0
 20 21  1  0
 19 14  1  0
M  END
>  <name>  (635) 
2-ethylhexyl (E)-3-(4-methoxyphenyl)prop-2-enoate

>  <Outcome>  (635) 
2

>  <SMILES>  (635) 
CCCCC(CC)COC(=O)C=Cc1ccc(OC)cc1

$$$$

     RDKit          2D

  8  8  0  0  0  0  0  0  0  0999 V2000
    3.7500   -1.2990    0.0000 C   0  0  0  0  0  0  0  0  0  0  0  0
    3.0000    0.0000    0.0000 C   0  0  0  0  0  0  0  0  0  0  0  0
    1.5000    0.0000    0.0000 C   0  0  0  0  0  0  0  0  0  0  0  0
    0.7500   -1.2990    0.0000 C   0  0  0  0  0  0  0  0  0  0  0  0
   -0.7500   -1.2990    0.0000 C   0  0  0  0  0  0  0  0  0  0  0  0
   -1.5000    0.0000    0.0000 N   0  0  0  0  0  0  0  0  0  0  0  0
   -0.7500    1.2990    0.0000 C   0  0  0  0  0  0  0  0  0  0  0  0
    0.7500    1.2990    0.0000 C   0  0  0  0  0  0  0  0  0  0  0  0
  1  2  2  0
  2  3  1  0
  3  4  2  0
  4  5  1  0
  5  6  2  0
  6  7  1  0
  7  8  2  0
  8  3  1  0
M  END
>  <name>  (636) 
4-ethenylpyridine

>  <Outcome>  (636) 
2

>  <SMILES>  (636) 
C=Cc1ccncc1

$$$$

     RDKit          2D

  8  7  0  0  0  0  0  0  0  0999 V2000
    0.0000    0.0000    0.0000 C   0  0  0  0  0  0  0  0  0  0  0  0
    1.2990    0.7500    0.0000 N   0  0  0  0  0  0  0  0  0  0  0  0
    2.5981   -0.0000    0.0000 C   0  0  0  0  0  0  0  0  0  0  0  0
    1.2990    2.2500    0.0000 C   0  0  0  0  0  0  0  0  0  0  0  0
   -0.0000    3.0000    0.0000 O   0  0  0  0  0  0  0  0  0  0  0  0
    2.5981    3.0000    0.0000 N   0  0  0  0  0  0  0  0  0  0  0  0
    2.5981    4.5000    0.0000 C   0  0  0  0  0  0  0  0  0  0  0  0
    3.8971    2.2500    0.0000 C   0  0  0  0  0  0  0  0  0  0  0  0
  1  2  1  0
  2  3  1  0
  2  4  1  0
  4  5  2  0
  4  6  1  0
  6  7  1  0
  6  8  1  0
M  END
>  <name>  (637) 
1,1,3,3-tetramethylurea

>  <Outcome>  (637) 
2

>  <SMILES>  (637) 
CN(C)C(=O)N(C)C

$$$$

     RDKit          2D

 14 14  0  0  0  0  0  0  0  0999 V2000
   -0.7145    3.7125    0.0000 C   0  0  0  0  0  0  0  0  0  0  0  0
   -0.0000    3.3000    0.0000 N   0  0  0  0  0  0  0  0  0  0  0  0
    0.7145    3.7125    0.0000 C   0  0  0  0  0  0  0  0  0  0  0  0
   -0.0000    2.4750    0.0000 C   0  0  0  0  0  0  0  0  0  0  0  0
   -0.7145    2.0625    0.0000 O   0  0  0  0  0  0  0  0  0  0  0  0
    0.7145    2.0625    0.0000 N   0  0  0  0  0  0  0  0  0  0  0  0
    0.7145    1.2375    0.0000 C   0  0  0  0  0  0  0  0  0  0  0  0
    1.4289    0.8250    0.0000 C   0  0  0  0  0  0  0  0  0  0  0  0
    1.4289   -0.0000    0.0000 C   0  0  0  0  0  0  0  0  0  0  0  0
    0.7145   -0.4125    0.0000 C   0  0  0  0  0  0  0  0  0  0  0  0
    0.7145   -1.2375    0.0000 Cl  0  0  0  0  0  0  0  0  0  0  0  0
   -0.0000   -0.0000    0.0000 C   0  0  0  0  0  0  0  0  0  0  0  0
   -0.7145   -0.4125    0.0000 Cl  0  0  0  0  0  0  0  0  0  0  0  0
   -0.0000    0.8250    0.0000 C   0  0  0  0  0  0  0  0  0  0  0  0
  1  2  1  0
  2  3  1  0
  2  4  1  0
  4  5  2  0
  4  6  1  0
  6  7  1  0
  7  8  2  0
  8  9  1  0
  9 10  2  0
 10 11  1  0
 10 12  1  0
 12 13  1  0
 12 14  2  0
  7 14  1  0
M  END
>  <name>  (638) 
1-(3,4-dichlorophenyl)-3,3-dimethylurea

>  <Outcome>  (638) 
0

>  <SMILES>  (638) 
CN(C)C(=O)Nc1ccc(Cl)c(Cl)c1

$$$$

     RDKit          2D

  5  2  0  0  0  0  0  0  0  0999 V2000
    0.0000    0.0000    0.0000 C   0  0  0  0  0  0  0  0  0  0  0  0
    1.2990    0.7500    0.0000 C   0  0  0  0  0  3  0  0  0  0  0  0
    0.0000    1.7500    0.0000 C   0  0  0  0  0  0  0  0  0  0  0  0
    1.2990    2.5000    0.0000 C   0  0  0  0  0  3  0  0  0  0  0  0
    2.2990    0.0000    0.0000 Zn  0  0  0  0  0 15  0  0  0  0  0  0
  1  2  1  0
  3  4  1  0
M  CHG  3   2  -1   4  -1   5   2
M  END
>  <name>  (639) 
zinc;ethane

>  <Outcome>  (639) 
2

>  <SMILES>  (639) 
[CH2-]C.[CH2-]C.[Zn+2]

$$$$

     RDKit          2D

  5  4  0  0  0  0  0  0  0  0999 V2000
    0.0000    0.0000    0.0000 C   0  0  0  0  0  0  0  0  0  0  0  0
   -0.0000   -1.5000    0.0000 N   0  0  0  0  0  0  0  0  0  0  0  0
    0.0000    1.5000    0.0000 C   0  0  0  0  0  0  0  0  0  0  0  0
    1.2990    2.2500    0.0000 Cl  0  0  0  0  0  0  0  0  0  0  0  0
   -1.2990    2.2500    0.0000 Cl  0  0  0  0  0  0  0  0  0  0  0  0
  1  2  3  0
  1  3  1  0
  3  4  1  0
  3  5  1  0
M  END
>  <name>  (640) 
2,2-dichloroacetonitrile

>  <Outcome>  (640) 
2

>  <SMILES>  (640) 
N#CC(Cl)Cl

$$$$

     RDKit          2D

 12 11  0  0  0  0  0  0  0  0999 V2000
    1.2417   -2.2503    0.0000 C   0  0  0  0  0  0  0  0  0  0  0  0
    1.6542   -1.5358    0.0000 C   0  0  0  0  0  0  0  0  0  0  0  0
    2.4792   -1.5358    0.0000 C   0  0  0  0  0  0  0  0  0  0  0  0
    2.8917   -0.8213    0.0000 N   0  0  0  0  0  0  0  0  0  0  0  0
    2.4792   -0.1069    0.0000 C   0  0  0  0  0  0  0  0  0  0  0  0
    1.6542   -0.1069    0.0000 C   0  0  0  0  0  0  0  0  0  0  0  0
    1.2417    0.6076    0.0000 C   0  0  0  0  0  0  0  0  0  0  0  0
    3.7167   -0.8213    0.0000 C   0  0  0  0  0  0  0  0  0  0  0  0
    4.1292   -1.5358    0.0000 O   0  0  0  0  0  0  0  0  0  0  0  0
    4.1292   -0.1069    0.0000 S   0  0  0  0  0  0  0  0  0  0  0  0
    4.9542   -0.1069    0.0000 C   0  0  0  0  0  0  0  0  0  0  0  0
    5.3667    0.6076    0.0000 C   0  0  0  0  0  0  0  0  0  0  0  0
  1  2  1  0
  2  3  1  0
  3  4  1  0
  4  5  1  0
  5  6  1  0
  6  7  1  0
  4  8  1  0
  8  9  2  0
  8 10  1  0
 10 11  1  0
 11 12  1  0
M  END
>  <name>  (641) 
S-ethyl dipropylthiocarbamate

>  <Outcome>  (641) 
1

>  <SMILES>  (641) 
CCCN(CCC)C(=O)SCC

$$$$

     RDKit          2D

 10  9  0  0  0  0  0  0  0  0999 V2000
    0.0000    0.0000    0.0000 C   0  0  0  0  0  0  0  0  0  0  0  0
   -0.0000   -1.5000    0.0000 O   0  0  0  0  0  0  0  0  0  0  0  0
    1.2990    0.7500    0.0000 C   0  0  0  0  0  0  0  0  0  0  0  0
    2.5981    1.5000    0.0000 Cl  0  0  0  0  0  0  0  0  0  0  0  0
    2.0490   -0.5490    0.0000 Cl  0  0  0  0  0  0  0  0  0  0  0  0
    0.5490    2.0490    0.0000 Cl  0  0  0  0  0  0  0  0  0  0  0  0
   -1.2990    0.7500    0.0000 C   0  0  0  0  0  0  0  0  0  0  0  0
   -2.5981    1.5000    0.0000 Cl  0  0  0  0  0  0  0  0  0  0  0  0
   -2.0490   -0.5490    0.0000 Cl  0  0  0  0  0  0  0  0  0  0  0  0
   -0.5490    2.0490    0.0000 Cl  0  0  0  0  0  0  0  0  0  0  0  0
  1  2  2  0
  1  3  1  0
  3  4  1  0
  3  5  1  0
  3  6  1  0
  1  7  1  0
  7  8  1  0
  7  9  1  0
  7 10  1  0
M  END
>  <name>  (642) 
1,1,1,3,3,3-hexachloropropan-2-one

>  <Outcome>  (642) 
2

>  <SMILES>  (642) 
O=C(C(Cl)(Cl)Cl)C(Cl)(Cl)Cl

$$$$

     RDKit          2D

  3  1  0  0  0  0  0  0  0  0999 V2000
    0.0000    0.0000    0.0000 O   0  0  0  0  0  1  0  0  0  0  0  0
    1.2990    0.7500    0.0000 O   0  0  0  0  0  1  0  0  0  0  0  0
    0.0000    1.7500    0.0000 Ba  0  0  0  0  0 15  0  0  0  0  0  0
  1  2  1  0
M  CHG  3   1  -1   2  -1   3   2
M  END
>  <name>  (643) 
barium(2+);peroxide

>  <Outcome>  (643) 
2

>  <SMILES>  (643) 
[Ba+2].[O-][O-]

$$$$

     RDKit          2D

  5  4  0  0  0  0  0  0  0  0999 V2000
    1.7717   -0.9718    0.0000 Cl  0  0  0  0  0  0  0  0  0  0  0  0
    1.3592   -0.2573    0.0000 C   0  0  0  0  0  0  0  0  0  0  0  0
    0.5342   -0.2573    0.0000 C   0  0  0  0  0  0  0  0  0  0  0  0
    0.1217    0.4572    0.0000 C   0  0  0  0  0  0  0  0  0  0  0  0
   -0.7033    0.4572    0.0000 Br  0  0  0  0  0  0  0  0  0  0  0  0
  1  2  1  0
  2  3  1  0
  3  4  1  0
  4  5  1  0
M  END
>  <name>  (644) 
1-Bromo-3-chloropropane

>  <Outcome>  (644) 
1

>  <SMILES>  (644) 
ClCCCBr

$$$$

     RDKit          2D

  9  8  0  0  0  0  0  0  0  0999 V2000
    0.0000    0.0000    0.0000 C   0  0  0  0  0  0  0  0  0  0  0  0
    1.2990    0.7500    0.0000 C   0  0  0  0  0  0  0  0  0  0  0  0
    2.5981   -0.0000    0.0000 O   0  0  0  0  0  0  0  0  0  0  0  0
    3.8971    0.7500    0.0000 S   0  0  0  0  0  0  0  0  0  0  0  0
    4.6471   -0.5490    0.0000 O   0  0  0  0  0  0  0  0  0  0  0  0
    3.1471    2.0490    0.0000 O   0  0  0  0  0  0  0  0  0  0  0  0
    5.1962    1.5000    0.0000 O   0  0  0  0  0  0  0  0  0  0  0  0
    5.1962    3.0000    0.0000 C   0  0  0  0  0  0  0  0  0  0  0  0
    6.4952    3.7500    0.0000 C   0  0  0  0  0  0  0  0  0  0  0  0
  1  2  1  0
  2  3  1  0
  3  4  1  0
  4  5  2  0
  4  6  2  0
  4  7  1  0
  7  8  1  0
  8  9  1  0
M  END
>  <name>  (645) 
diethyl sulfate

>  <Outcome>  (645) 
2

>  <SMILES>  (645) 
CCOS(=O)(=O)OCC

$$$$

     RDKit          2D

  7  6  0  0  0  0  0  0  0  0999 V2000
   -0.0432    0.0122    0.0000 C   0  0  0  0  0  0  0  0  0  0  0  0
    0.6713    0.4247    0.0000 C   0  0  0  0  0  0  0  0  0  0  0  0
    1.3857    0.0122    0.0000 C   0  0  0  0  0  0  0  0  0  0  0  0
    2.1002    0.4247    0.0000 C   0  0  0  0  0  0  0  0  0  0  0  0
    2.8147    0.0122    0.0000 C   0  0  0  0  0  0  0  0  0  0  0  0
    3.5291    0.4247    0.0000 C   0  0  0  0  0  0  0  0  0  0  0  0
    2.8147   -0.8128    0.0000 C   0  0  0  0  0  0  0  0  0  0  0  0
  1  2  1  0
  2  3  1  0
  3  4  1  0
  4  5  1  0
  5  6  1  0
  5  7  1  0
M  END
>  <name>  (646) 
isoheptane

>  <Outcome>  (646) 
0

>  <SMILES>  (646) 
CCCCC(C)C

$$$$

     RDKit          2D

  5  4  0  0  0  0  0  0  0  0999 V2000
    0.0000    0.0000    0.0000 Cl  0  0  0  0  0  0  0  0  0  0  0  0
    1.2990    0.7500    0.0000 Sn  0  0  0  0  0  4  0  0  0  0  0  0
    2.5981    1.5000    0.0000 Cl  0  0  0  0  0  0  0  0  0  0  0  0
    2.0490   -0.5490    0.0000 Cl  0  0  0  0  0  0  0  0  0  0  0  0
    0.5490    2.0490    0.0000 Cl  0  0  0  0  0  0  0  0  0  0  0  0
  1  2  1  0
  2  3  1  0
  2  4  1  0
  2  5  1  0
M  END
>  <name>  (647) 
tetrachlorostannane

>  <Outcome>  (647) 
2

>  <SMILES>  (647) 
Cl[Sn](Cl)(Cl)Cl

$$$$

     RDKit          2D

 16 15  0  0  0  0  0  0  0  0999 V2000
    5.9961    4.2876    0.0000 C   0  0  0  0  0  0  0  0  0  0  0  0
    6.7105    4.7001    0.0000 C   0  0  0  0  0  0  0  0  0  0  0  0
    7.4250    4.2876    0.0000 C   0  0  0  0  0  0  0  0  0  0  0  0
    8.1395    4.7001    0.0000 C   0  0  0  0  0  0  0  0  0  0  0  0
    8.8539    4.2876    0.0000 C   0  0  0  0  0  0  0  0  0  0  0  0
    9.5684    4.7001    0.0000 C   0  0  0  0  0  0  0  0  0  0  0  0
   10.2829    4.2876    0.0000 C   0  0  0  0  0  0  0  0  0  0  0  0
   10.9974    4.7001    0.0000 C   0  0  0  0  0  0  0  0  0  0  0  0
   11.7118    4.2876    0.0000 C   0  0  0  0  0  0  0  0  0  0  0  0
   12.4263    4.7001    0.0000 C   0  0  0  0  0  0  0  0  0  0  0  0
   13.1408    4.2876    0.0000 C   0  0  0  0  0  0  0  0  0  0  0  0
   13.8552    4.7001    0.0000 C   0  0  0  0  0  0  0  0  0  0  0  0
   14.5697    4.2876    0.0000 C   0  0  0  0  0  0  0  0  0  0  0  0
   15.2842    4.7001    0.0000 C   0  0  0  0  0  0  0  0  0  0  0  0
   15.9987    4.2876    0.0000 C   0  0  0  0  0  0  0  0  0  0  0  0
   16.7131    4.7001    0.0000 C   0  0  0  0  0  0  0  0  0  0  0  0
  1  2  2  0
  2  3  1  0
  3  4  1  0
  4  5  1  0
  5  6  1  0
  6  7  1  0
  7  8  1  0
  8  9  1  0
  9 10  1  0
 10 11  1  0
 11 12  1  0
 12 13  1  0
 13 14  1  0
 14 15  1  0
 15 16  1  0
M  END
>  <name>  (648) 
hexadec-1-ene

>  <Outcome>  (648) 
0

>  <SMILES>  (648) 
C=CCCCCCCCCCCCCCC

$$$$

     RDKit          2D

 10 10  0  0  0  0  0  0  0  0999 V2000
    1.5000    0.0000    0.0000 C   0  0  0  0  0  0  0  0  0  0  0  0
    0.7500   -1.2990    0.0000 C   0  0  0  0  0  0  0  0  0  0  0  0
   -0.7500   -1.2990    0.0000 C   0  0  0  0  0  0  0  0  0  0  0  0
   -1.5000    0.0000    0.0000 C   0  0  0  0  0  0  0  0  0  0  0  0
   -0.7500    1.2990    0.0000 C   0  0  0  0  0  0  0  0  0  0  0  0
    0.7500    1.2990    0.0000 C   0  0  0  0  0  0  0  0  0  0  0  0
   -3.0000    0.0000    0.0000 C   0  0  0  0  0  0  0  0  0  0  0  0
   -4.5000    0.0000    0.0000 Cl  0  0  0  0  0  0  0  0  0  0  0  0
   -3.0000    1.5000    0.0000 Cl  0  0  0  0  0  0  0  0  0  0  0  0
   -3.0000   -1.5000    0.0000 Cl  0  0  0  0  0  0  0  0  0  0  0  0
  1  2  2  0
  2  3  1  0
  3  4  2  0
  4  5  1  0
  5  6  2  0
  4  7  1  0
  7  8  1  0
  7  9  1  0
  7 10  1  0
  6  1  1  0
M  END
>  <name>  (649) 
trichloromethylbenzene

>  <Outcome>  (649) 
2

>  <SMILES>  (649) 
ClC(Cl)(Cl)c1ccccc1

$$$$

     RDKit          2D

 16 15  0  0  0  0  0  0  0  0999 V2000
    0.0000    0.0000    0.0000 C   0  0  0  0  0  0  0  0  0  0  0  0
    1.2990    0.7500    0.0000 C   0  0  0  0  0  0  0  0  0  0  0  0
    2.5981   -0.0000    0.0000 O   0  0  0  0  0  0  0  0  0  0  0  0
    3.8971    0.7500    0.0000 Si  0  0  0  0  0  4  0  0  0  0  0  0
    5.1962    1.5000    0.0000 C   0  0  0  0  0  0  0  0  0  0  0  0
    5.1962    3.0000    0.0000 C   0  0  0  0  0  0  0  0  0  0  0  0
    6.4952    3.7500    0.0000 C   0  0  0  0  0  0  0  0  0  0  0  0
    6.4952    5.2500    0.0000 N   0  0  0  0  0  0  0  0  0  0  0  0
    7.7942    6.0000    0.0000 C   0  0  0  0  0  0  0  0  0  0  0  0
    9.0933    6.7500    0.0000 O   0  0  0  0  0  0  0  0  0  0  0  0
    3.1471    2.0490    0.0000 O   0  0  0  0  0  0  0  0  0  0  0  0
    3.8971    3.3481    0.0000 C   0  0  0  0  0  0  0  0  0  0  0  0
    3.1471    4.6471    0.0000 C   0  0  0  0  0  0  0  0  0  0  0  0
    4.6471   -0.5490    0.0000 O   0  0  0  0  0  0  0  0  0  0  0  0
    6.1471   -0.5490    0.0000 C   0  0  0  0  0  0  0  0  0  0  0  0
    6.8971   -1.8481    0.0000 C   0  0  0  0  0  0  0  0  0  0  0  0
  1  2  1  0
  2  3  1  0
  3  4  1  0
  4  5  1  0
  5  6  1  0
  6  7  1  0
  7  8  1  0
  8  9  2  0
  9 10  2  0
  4 11  1  0
 11 12  1  0
 12 13  1  0
  4 14  1  0
 14 15  1  0
 15 16  1  0
M  END
>  <name>  (650) 
triethoxy(3-isocyanatopropyl)silane

>  <Outcome>  (650) 
2

>  <SMILES>  (650) 
CCO[Si](CCCN=C=O)(OCC)OCC

$$$$

     RDKit          2D

  7  6  0  0  0  0  0  0  0  0999 V2000
    0.0000    0.0000    0.0000 C   0  0  0  0  0  0  0  0  0  0  0  0
    1.2990    0.7500    0.0000 O   0  0  0  0  0  0  0  0  0  0  0  0
    2.5981   -0.0000    0.0000 S   0  0  0  0  0  0  0  0  0  0  0  0
    3.3481    1.2990    0.0000 O   0  0  0  0  0  0  0  0  0  0  0  0
    1.8481   -1.2990    0.0000 O   0  0  0  0  0  0  0  0  0  0  0  0
    3.8971   -0.7500    0.0000 O   0  0  0  0  0  0  0  0  0  0  0  0
    3.8971   -2.2500    0.0000 C   0  0  0  0  0  0  0  0  0  0  0  0
  1  2  1  0
  2  3  1  0
  3  4  2  0
  3  5  2  0
  3  6  1  0
  6  7  1  0
M  END
>  <name>  (651) 
dimethyl sulfate

>  <Outcome>  (651) 
2

>  <SMILES>  (651) 
COS(=O)(=O)OC

$$$$

     RDKit          2D

 11 11  0  0  0  0  0  0  0  0999 V2000
   -0.7129    3.7135    0.0000 O   0  0  0  0  0  0  0  0  0  0  0  0
    0.0016    3.3010    0.0000 C   0  0  0  0  0  0  0  0  0  0  0  0
    0.7161    3.7135    0.0000 O   0  0  0  0  0  0  0  0  0  0  0  0
    0.0016    2.4760    0.0000 C   0  0  0  0  0  0  0  0  0  0  0  0
    0.7161    2.0635    0.0000 O   0  0  0  0  0  0  0  0  0  0  0  0
    0.7161    1.2385    0.0000 C   0  0  0  0  0  0  0  0  0  0  0  0
    1.4305    0.8260    0.0000 C   0  0  0  0  0  0  0  0  0  0  0  0
    1.4305    0.0010    0.0000 C   0  0  0  0  0  0  0  0  0  0  0  0
    0.7161   -0.4115    0.0000 C   0  0  0  0  0  0  0  0  0  0  0  0
    0.0016    0.0010    0.0000 C   0  0  0  0  0  0  0  0  0  0  0  0
    0.0016    0.8260    0.0000 C   0  0  0  0  0  0  0  0  0  0  0  0
  1  2  2  0
  2  3  1  0
  2  4  1  0
  4  5  1  0
  5  6  1  0
  6  7  2  0
  7  8  1  0
  8  9  2  0
  9 10  1  0
 10 11  2  0
  6 11  1  0
M  END
>  <name>  (652) 
sodium 2-phenoxyacetate

>  <Outcome>  (652) 
0

>  <SMILES>  (652) 
O=C(O)COc1ccccc1

$$$$

     RDKit          2D

 10  9  0  0  0  0  0  0  0  0999 V2000
   -0.0001    0.0000    0.0000 C   0  0  0  0  0  0  0  0  0  0  0  0
    0.7144    0.4125    0.0000 C   0  0  0  0  0  0  0  0  0  0  0  0
    1.4288    0.0000    0.0000 C   0  0  0  0  0  0  0  0  0  0  0  0
    2.1433    0.4125    0.0000 C   0  0  0  0  0  0  0  0  0  0  0  0
    2.8578    0.0000    0.0000 C   0  0  0  0  0  0  0  0  0  0  0  0
    3.5723    0.4125    0.0000 C   0  0  0  0  0  0  0  0  0  0  0  0
    4.2867    0.0000    0.0000 C   0  0  0  0  0  0  0  0  0  0  0  0
    5.0012    0.4125    0.0000 C   0  0  0  0  0  0  0  0  0  0  0  0
    5.7157    0.0000    0.0000 C   0  0  0  0  0  0  0  0  0  0  0  0
    6.4301    0.4125    0.0000 O   0  0  0  0  0  0  0  0  0  0  0  0
  1  2  1  0
  2  3  1  0
  3  4  1  0
  4  5  1  0
  5  6  1  0
  6  7  1  0
  7  8  1  0
  8  9  1  0
  9 10  1  0
M  END
>  <name>  (653) 
1-Nonanol

>  <Outcome>  (653) 
0

>  <SMILES>  (653) 
CCCCCCCCCO

$$$$

     RDKit          2D

 23 25  0  0  0  0  0  0  0  0999 V2000
    4.0981    0.4019    0.0000 C   0  0  0  0  0  0  0  0  0  0  0  0
    2.7990   -0.3481    0.0000 C   0  0  0  0  0  0  0  0  0  0  0  0
    2.2256    0.2057    0.0000 O   0  0  0  0  0  0  0  0  0  0  0  0
    2.7990   -1.8481    0.0000 O   0  0  0  0  0  0  0  0  0  0  0  0
    1.5000   -2.5981    0.0000 Sn  0  0  0  0  0  4  0  0  0  0  0  0
    0.7500   -1.2990    0.0000 C   0  0  0  0  0  0  0  0  0  0  0  0
   -0.7500   -1.2990    0.0000 C   0  0  0  0  0  0  0  0  0  0  0  0
   -1.5000    0.0000    0.0000 C   0  0  0  0  0  0  0  0  0  0  0  0
   -0.7500    1.2990    0.0000 C   0  0  0  0  0  0  0  0  0  0  0  0
    0.7500    1.2990    0.0000 C   0  0  0  0  0  0  0  0  0  0  0  0
    1.5000    0.0000    0.0000 C   0  0  0  0  0  0  0  0  0  0  0  0
    2.2500   -3.8971    0.0000 C   0  0  0  0  0  0  0  0  0  0  0  0
    1.5000   -5.1962    0.0000 C   0  0  0  0  0  0  0  0  0  0  0  0
    2.2500   -6.4952    0.0000 C   0  0  0  0  0  0  0  0  0  0  0  0
    3.7500   -6.4952    0.0000 C   0  0  0  0  0  0  0  0  0  0  0  0
    4.5000   -5.1962    0.0000 C   0  0  0  0  0  0  0  0  0  0  0  0
    3.7500   -3.8971    0.0000 C   0  0  0  0  0  0  0  0  0  0  0  0
    0.2010   -3.3481    0.0000 C   0  0  0  0  0  0  0  0  0  0  0  0
   -1.0981   -2.5981    0.0000 C   0  0  0  0  0  0  0  0  0  0  0  0
   -2.3971   -3.3481    0.0000 C   0  0  0  0  0  0  0  0  0  0  0  0
   -2.3971   -4.8481    0.0000 C   0  0  0  0  0  0  0  0  0  0  0  0
   -1.0981   -5.5981    0.0000 C   0  0  0  0  0  0  0  0  0  0  0  0
    0.2010   -4.8481    0.0000 C   0  0  0  0  0  0  0  0  0  0  0  0
  1  2  1  0
  2  3  2  0
  2  4  1  0
  4  5  1  0
  5  6  1  0
  6  7  2  0
  7  8  1  0
  8  9  2  0
  9 10  1  0
 10 11  2  0
  5 12  1  0
 12 13  2  0
 13 14  1  0
 14 15  2  0
 15 16  1  0
 16 17  2  0
  5 18  1  0
 18 19  2  0
 19 20  1  0
 20 21  2  0
 21 22  1  0
 22 23  2  0
 11  6  1  0
 17 12  1  0
 23 18  1  0
M  END
>  <name>  (654) 
triphenylstannyl acetate

>  <Outcome>  (654) 
2

>  <SMILES>  (654) 
CC(=O)O[Sn](c1ccccc1)(c1ccccc1)c1ccccc1

$$$$

     RDKit          2D

 12 13  0  0  0  0  0  0  0  0999 V2000
    1.4289   -2.4750    0.0000 N   0  0  0  0  0  0  0  0  0  0  0  0
    1.4289   -1.6500    0.0000 C   0  0  0  0  0  0  0  0  0  0  0  0
    0.7145   -1.2375    0.0000 C   0  0  0  0  0  0  0  0  0  0  0  0
    0.7145   -0.4125    0.0000 C   0  0  0  0  0  0  0  0  0  0  0  0
    1.4289   -0.0000    0.0000 C   0  0  0  0  0  0  0  0  0  0  0  0
    2.1434   -0.4125    0.0000 C   0  0  0  0  0  0  0  0  0  0  0  0
    2.8579   -0.0000    0.0000 C   0  0  0  0  0  0  0  0  0  0  0  0
    2.8579    0.8250    0.0000 N   0  0  0  0  0  0  0  0  0  0  0  0
    3.5724   -0.4125    0.0000 C   0  0  0  0  0  0  0  0  0  0  0  0
    3.5724   -1.2375    0.0000 C   0  0  0  0  0  0  0  0  0  0  0  0
    2.8579   -1.6500    0.0000 C   0  0  0  0  0  0  0  0  0  0  0  0
    2.1434   -1.2375    0.0000 C   0  0  0  0  0  0  0  0  0  0  0  0
  1  2  1  0
  2  3  2  0
  3  4  1  0
  4  5  2  0
  5  6  1  0
  6  7  2  0
  7  8  1  0
  7  9  1  0
  9 10  2  0
 10 11  1  0
 11 12  2  0
  2 12  1  0
  6 12  1  0
M  END
>  <name>  (655) 
naphthalene-1,5-diamine

>  <Outcome>  (655) 
0

>  <SMILES>  (655) 
Nc1cccc2c(N)cccc12

$$$$

     RDKit          2D

 10 10  0  0  0  0  0  0  0  0999 V2000
    1.5021    1.9494    0.0000 F   0  0  0  0  0  0  0  0  0  0  0  0
    0.8701    1.4191    0.0000 C   0  0  0  0  0  0  0  0  0  0  0  0
    0.3398    2.0511    0.0000 F   0  0  0  0  0  0  0  0  0  0  0  0
    1.4004    0.7871    0.0000 F   0  0  0  0  0  0  0  0  0  0  0  0
    0.2382    0.8888    0.0000 C   0  0  0  0  0  0  0  0  0  0  0  0
   -0.3938    1.4191    0.0000 F   0  0  0  0  0  0  0  0  0  0  0  0
    0.6507    0.1743    0.0000 O   0  0  0  0  0  0  0  0  0  0  0  0
   -0.1743    0.1743    0.0000 C   0  0  0  0  0  0  0  0  0  0  0  0
   -0.5230   -0.5734    0.0000 F   0  0  0  0  0  0  0  0  0  0  0  0
   -0.9962    0.2462    0.0000 F   0  0  0  0  0  0  0  0  0  0  0  0
  1  2  1  0
  2  3  1  0
  2  4  1  0
  2  5  1  0
  5  6  1  0
  5  7  1  0
  7  8  1  0
  5  8  1  0
  8  9  1  0
  8 10  1  0
M  END
>  <name>  (656) 
2,2,3-trifluoro-3-(trifluoromethyl)oxirane

>  <Outcome>  (656) 
1

>  <SMILES>  (656) 
FC(F)(F)C1(F)OC1(F)F

$$$$

     RDKit          2D

  9  8  0  0  0  0  0  0  0  0999 V2000
    3.9430   -2.1201    0.0000 C   0  0  0  0  0  0  0  0  0  0  0  0
    3.5305   -1.4056    0.0000 Si  0  0  0  0  0  4  0  0  0  0  0  0
    4.2449   -0.9931    0.0000 C   0  0  0  0  0  0  0  0  0  0  0  0
    2.8160   -1.8181    0.0000 F   0  0  0  0  0  0  0  0  0  0  0  0
    3.1180   -0.6911    0.0000 C   0  0  0  0  0  0  0  0  0  0  0  0
    2.2930   -0.6911    0.0000 C   0  0  0  0  0  0  0  0  0  0  0  0
    1.8805    0.0234    0.0000 C   0  0  0  0  0  0  0  0  0  0  0  0
    1.0555    0.0234    0.0000 C   0  0  0  0  0  0  0  0  0  0  0  0
    0.2305    0.0234    0.0000 N   0  0  0  0  0  0  0  0  0  0  0  0
  1  2  1  0
  2  3  1  0
  2  4  1  0
  2  5  1  0
  5  6  1  0
  6  7  1  0
  7  8  1  0
  8  9  3  0
M  END
>  <name>  (657) 
unnamed [1639345-42-8]

>  <Outcome>  (657) 
1

>  <SMILES>  (657) 
C[Si](C)(F)CCCC#N

$$$$

     RDKit          2D

 42 48  0  0  0  0  0  0  0  0999 V2000
   11.6187  -13.1715    0.0000 C   0  0  0  0  0  0  0  0  0  0  0  0
   10.4052  -12.2899    0.0000 C   0  0  0  0  0  0  0  0  0  0  0  0
    9.0348  -12.9000    0.0000 C   0  0  0  0  0  0  0  0  0  0  0  0
    8.8781  -14.3918    0.0000 C   0  0  0  0  0  0  0  0  0  0  0  0
    7.8213  -12.0183    0.0000 C   0  0  0  0  0  0  0  0  0  0  0  0
    6.4510  -12.6284    0.0000 O   0  0  0  0  0  0  0  0  0  0  0  0
    7.9781  -10.5265    0.0000 O   0  0  0  0  0  0  0  0  0  0  0  0
    6.7646   -9.6448    0.0000 C   0  0  0  0  0  0  0  0  0  0  0  0
    6.9214   -8.1531    0.0000 C   0  0  0  0  0  0  0  0  0  0  0  0
    5.7079   -7.2714    0.0000 C   0  0  0  0  0  0  0  0  0  0  0  0
    4.3375   -7.8815    0.0000 C   0  0  0  0  0  0  0  0  0  0  0  0
    4.1807   -9.3733    0.0000 C   0  0  0  0  0  0  0  0  0  0  0  0
    5.3943  -10.2549    0.0000 C   0  0  0  0  0  0  0  0  0  0  0  0
    5.4232   -8.7552    0.0000 O   0  0  0  0  0  0  0  0  0  0  0  0
    3.1240   -6.9998    0.0000 C   0  0  0  0  0  0  0  0  0  0  0  0
    2.9672   -5.5080    0.0000 C   0  0  0  0  0  0  0  0  0  0  0  0
    1.5000   -5.1962    0.0000 C   0  0  0  0  0  0  0  0  0  0  0  0
    0.7500   -3.8971    0.0000 C   0  0  0  0  0  0  0  0  0  0  0  0
    1.5000   -2.5981    0.0000 C   0  0  0  0  0  0  0  0  0  0  0  0
    0.7500   -1.2990    0.0000 N   0  0  0  0  0  0  0  0  0  0  0  0
    1.5000    0.0000    0.0000 C   0  0  0  0  0  0  0  0  0  0  0  0
    0.7500    1.2990    0.0000 C   0  0  0  0  0  0  0  0  0  0  0  0
   -0.7500    1.2990    0.0000 C   0  0  0  0  0  0  0  0  0  0  0  0
   -1.5000    0.0000    0.0000 C   0  0  0  0  0  0  0  0  0  0  0  0
   -0.7500   -1.2990    0.0000 C   0  0  0  0  0  0  0  0  0  0  0  0
   -1.5000   -2.5981    0.0000 C   0  0  0  0  0  0  0  0  0  0  0  0
   -0.7500   -3.8971    0.0000 C   0  0  0  0  0  0  0  0  0  0  0  0
   -1.5000   -5.1962    0.0000 C   0  0  0  0  0  0  0  0  0  0  0  0
   -0.7500   -6.4952    0.0000 C   0  0  0  0  0  0  0  0  0  0  0  0
    0.7500   -6.4952    0.0000 C   0  0  0  0  0  0  0  0  0  0  0  0
    1.7537   -7.6099    0.0000 C   0  0  0  0  0  0  0  0  0  0  0  0
    1.5969   -9.1017    0.0000 C   0  0  0  0  0  0  0  0  0  0  0  0
    2.8104   -9.9834    0.0000 C   0  0  0  0  0  0  0  0  0  0  0  0
    0.1399   -7.8655    0.0000 O   0  0  0  0  0  0  0  0  0  0  0  0
   -3.0000   -5.1962    0.0000 O   0  0  0  0  0  0  0  0  0  0  0  0
   -2.2388   -4.0800    0.0000 O   0  0  0  0  0  0  0  0  0  0  0  0
   -2.7580   -3.4150    0.0000 C   0  0  0  0  0  0  0  0  0  0  0  0
   -2.6491   -1.6339    0.0000 O   0  0  0  0  0  0  0  0  0  0  0  0
    1.5000    2.5981    0.0000 C   0  0  0  0  0  0  0  0  0  0  0  0
    2.3817   -3.9826    0.0000 O   0  0  0  0  0  0  0  0  0  0  0  0
    5.2375  -11.7467    0.0000 O   0  0  0  0  0  0  0  0  0  0  0  0
    4.4943   -6.3897    0.0000 C   0  0  0  0  0  0  0  0  0  0  0  0
  1  2  1  0
  2  3  2  3
  3  4  1  0
  3  5  1  0
  5  6  2  0
  5  7  1  0
  7  8  1  0
  8  9  1  0
  9 10  1  0
 10 11  1  0
 11 12  1  0
 12 13  1  0
 13 14  1  0
 14 15  1  0
 15 16  1  0
 16 17  1  0
 17 18  1  0
 18 19  1  0
 19 20  1  0
 20 21  1  0
 21 22  1  0
 22 23  1  0
 23 24  1  0
 24 25  1  0
 25 26  1  0
 26 27  1  0
 27 28  1  0
 28 29  1  0
 29 30  1  0
 30 31  1  0
 31 32  1  0
 32 33  1  0
 30 34  1  0
 28 35  1  0
 27 36  1  0
 26 37  1  0
 26 38  1  0
 22 39  1  0
 17 40  1  0
 13 41  1  0
 11 42  1  0
 13  8  1  0
 15 11  1  0
 33 12  1  0
 31 15  1  0
 30 17  1  0
 27 18  1  0
 25 20  1  0
M  END
>  <name>  (658) 
[(1R,2S,6S,9S,10R,11S,12S,14R,15S,18S,19S,22S,23S,25R)-1,10,11,12,14,23-hexahydroxy-6,10,19-trimethyl-24-oxa-4-azaheptacyclo[12.12.0.02,11.04,9.015,25.018,23.019,25]hexacosan-22-yl] (Z)-2-methylbut-2-enoate

>  <Outcome>  (658) 
2

>  <SMILES>  (658) 
CC=C(C)C(=O)OC1CCC2(C)C3CCC4C5(O)CC(O)C6(O)C(CN7CC(C)CCC7C6(C)O)C5(O)CC42OC13O

$$$$

     RDKit          2D

  6  5  0  0  0  0  0  0  0  0999 V2000
   -0.7144   -0.0000    0.0000 N   0  0  0  0  0  0  0  0  0  0  0  0
    0.0000    0.4125    0.0000 C   0  0  0  0  0  0  0  0  0  0  0  0
    0.7145   -0.0000    0.0000 C   0  0  0  0  0  0  0  0  0  0  0  0
    1.4290    0.4125    0.0000 C   0  0  0  0  0  0  0  0  0  0  0  0
    2.1434   -0.0000    0.0000 C   0  0  0  0  0  0  0  0  0  0  0  0
    2.8579    0.4125    0.0000 N   0  0  0  0  0  0  0  0  0  0  0  0
  1  2  1  0
  2  3  1  0
  3  4  1  0
  4  5  1  0
  5  6  1  0
M  END
>  <name>  (659) 
Putrescine

>  <Outcome>  (659) 
1

>  <SMILES>  (659) 
NCCCCN

$$$$

     RDKit          2D

 15 14  0  0  0  0  0  0  0  0999 V2000
    0.0000    0.0000    0.0000 C   0  0  0  0  0  0  0  0  0  0  0  0
    1.2990    0.7500    0.0000 Si  0  0  0  0  0  4  0  0  0  0  0  0
    2.5981    1.5000    0.0000 C   0  0  0  0  0  0  0  0  0  0  0  0
    2.0490   -0.5490    0.0000 C   0  0  0  0  0  0  0  0  0  0  0  0
    3.5490   -0.5490    0.0000 C   0  0  0  0  0  0  0  0  0  0  0  0
    4.2990   -1.8481    0.0000 C   0  0  0  0  0  0  0  0  0  0  0  0
    5.7990   -1.8481    0.0000 N   0  0  0  0  0  0  0  0  0  0  0  0
    0.5490    2.0490    0.0000 O   0  0  0  0  0  0  0  0  0  0  0  0
    1.2990    3.3481    0.0000 Si  0  0  0  0  0  4  0  0  0  0  0  0
    0.0000    4.0981    0.0000 C   0  0  0  0  0  0  0  0  0  0  0  0
    2.5981    2.5981    0.0000 C   0  0  0  0  0  0  0  0  0  0  0  0
    2.0490    4.6471    0.0000 C   0  0  0  0  0  0  0  0  0  0  0  0
    3.5490    4.6471    0.0000 C   0  0  0  0  0  0  0  0  0  0  0  0
    4.2990    5.9462    0.0000 C   0  0  0  0  0  0  0  0  0  0  0  0
    5.7990    5.9462    0.0000 N   0  0  0  0  0  0  0  0  0  0  0  0
  1  2  1  0
  2  3  1  0
  2  4  1  0
  4  5  1  0
  5  6  1  0
  6  7  1  0
  2  8  1  0
  8  9  1  0
  9 10  1  0
  9 11  1  0
  9 12  1  0
 12 13  1  0
 13 14  1  0
 14 15  1  0
M  END
>  <name>  (660) 
3-[[3-aminopropyl(dimethyl)silyl]oxy-dimethylsilyl]propan-1-amine

>  <Outcome>  (660) 
2

>  <SMILES>  (660) 
C[Si](C)(CCCN)O[Si](C)(C)CCCN

$$$$

     RDKit          2D

 12 11  0  0  0  0  0  0  0  0999 V2000
    3.5211    2.8589    0.0000 C   0  0  0  0  0  0  0  0  0  0  0  0
    4.2355    3.2714    0.0000 C   0  0  0  0  0  0  0  0  0  0  0  0
    4.9500    2.8589    0.0000 C   0  0  0  0  0  0  0  0  0  0  0  0
    5.6645    3.2714    0.0000 C   0  0  0  0  0  0  0  0  0  0  0  0
    6.3789    2.8589    0.0000 C   0  0  0  0  0  0  0  0  0  0  0  0
    7.0934    3.2714    0.0000 C   0  0  0  0  0  0  0  0  0  0  0  0
    7.8079    2.8589    0.0000 C   0  0  0  0  0  0  0  0  0  0  0  0
    8.5224    3.2714    0.0000 C   0  0  0  0  0  0  0  0  0  0  0  0
    9.2368    2.8589    0.0000 C   0  0  0  0  0  0  0  0  0  0  0  0
    9.9513    3.2714    0.0000 C   0  0  0  0  0  0  0  0  0  0  0  0
   10.6658    2.8589    0.0000 C   0  0  0  0  0  0  0  0  0  0  0  0
   11.3802    3.2714    0.0000 C   0  0  0  0  0  0  0  0  0  0  0  0
  1  2  2  0
  2  3  1  0
  3  4  1  0
  4  5  1  0
  5  6  1  0
  6  7  1  0
  7  8  1  0
  8  9  1  0
  9 10  1  0
 10 11  1  0
 11 12  1  0
M  END
>  <name>  (661) 
dodec-1-ene

>  <Outcome>  (661) 
0

>  <SMILES>  (661) 
C=CCCCCCCCCCC

$$$$

     RDKit          2D

 16 15  0  0  0  0  0  0  0  0999 V2000
    2.7678   -8.6737    0.0000 C   0  0  0  0  0  0  0  0  0  0  0  0
    2.7678   -7.8487    0.0000 C   0  0  0  0  0  0  0  0  0  0  0  0
    2.0533   -7.4362    0.0000 C   0  0  0  0  0  0  0  0  0  0  0  0
    2.0533   -6.6112    0.0000 C   0  0  0  0  0  0  0  0  0  0  0  0
    1.3388   -6.1987    0.0000 O   0  0  0  0  0  0  0  0  0  0  0  0
    1.3388   -5.3737    0.0000 Tl  0  0  0  0  0  3  0  0  0  0  0  0
    0.6243   -4.9612    0.0000 O   0  0  0  0  0  0  0  0  0  0  0  0
    0.6243   -4.1362    0.0000 C   0  0  0  0  0  0  0  0  0  0  0  0
   -0.0901   -3.7237    0.0000 C   0  0  0  0  0  0  0  0  0  0  0  0
   -0.0901   -2.8987    0.0000 C   0  0  0  0  0  0  0  0  0  0  0  0
   -0.8046   -2.4862    0.0000 C   0  0  0  0  0  0  0  0  0  0  0  0
    2.0533   -4.9612    0.0000 O   0  0  0  0  0  0  0  0  0  0  0  0
    2.0533   -4.1362    0.0000 C   0  0  0  0  0  0  0  0  0  0  0  0
    2.7678   -3.7237    0.0000 C   0  0  0  0  0  0  0  0  0  0  0  0
    2.7678   -2.8987    0.0000 C   0  0  0  0  0  0  0  0  0  0  0  0
    3.4822   -2.4862    0.0000 C   0  0  0  0  0  0  0  0  0  0  0  0
  1  2  1  0
  2  3  1  0
  3  4  1  0
  4  5  1  0
  5  6  1  0
  6  7  1  0
  7  8  1  0
  8  9  1  0
  9 10  1  0
 10 11  1  0
  6 12  1  0
 12 13  1  0
 13 14  1  0
 14 15  1  0
 15 16  1  0
M  END
>  <name>  (662) 
Fatty acids, tall-oil, Bu esters

>  <Outcome>  (662) 
0

>  <SMILES>  (662) 
CCCCO[Tl](OCCCC)OCCCC

$$$$

     RDKit          2D

 12 11  0  0  0  0  0  0  0  0999 V2000
   -1.4191   -2.8293    0.0000 C   0  0  0  0  0  0  0  0  0  0  0  0
   -0.7046   -2.4168    0.0000 C   0  0  0  0  0  0  0  0  0  0  0  0
   -0.2921   -3.1313    0.0000 C   0  0  0  0  0  0  0  0  0  0  0  0
   -1.1171   -1.7024    0.0000 C   0  0  0  0  0  0  0  0  0  0  0  0
    0.0098   -2.0043    0.0000 O   0  0  0  0  0  0  0  0  0  0  0  0
    0.0098   -1.1793    0.0000 O   0  0  0  0  0  0  0  0  0  0  0  0
    0.7243   -0.7668    0.0000 C   0  0  0  0  0  0  0  0  0  0  0  0
    1.4388   -1.1793    0.0000 O   0  0  0  0  0  0  0  0  0  0  0  0
    0.7243    0.0582    0.0000 C   0  0  0  0  0  0  0  0  0  0  0  0
    0.7243    0.8832    0.0000 C   0  0  0  0  0  0  0  0  0  0  0  0
    1.5493    0.0582    0.0000 C   0  0  0  0  0  0  0  0  0  0  0  0
   -0.1007    0.0582    0.0000 C   0  0  0  0  0  0  0  0  0  0  0  0
  1  2  1  0
  2  3  1  0
  2  4  1  0
  2  5  1  0
  5  6  1  0
  6  7  1  0
  7  8  2  0
  7  9  1  0
  9 10  1  0
  9 11  1  0
  9 12  1  0
M  END
>  <name>  (663) 
tert-butyl 2,2-dimethylpropaneperoxoate

>  <Outcome>  (663) 
0

>  <SMILES>  (663) 
CC(C)(C)OOC(=O)C(C)(C)C

$$$$

     RDKit          2D

  4  3  0  0  0  0  0  0  0  0999 V2000
    2.0625   -0.7145    0.0000 C   0  0  0  0  0  0  0  0  0  0  0  0
    1.2375   -0.7145    0.0000 C   0  0  0  0  0  0  0  0  0  0  0  0
    0.8250   -0.0000    0.0000 C   0  0  0  0  0  0  0  0  0  0  0  0
    0.0000   -0.0000    0.0000 O   0  0  0  0  0  0  0  0  0  0  0  0
  1  2  2  0
  2  3  1  0
  3  4  2  0
M  END
>  <name>  (664) 
prop-2-enal

>  <Outcome>  (664) 
1

>  <SMILES>  (664) 
C=CC=O

$$$$

     RDKit          2D

 16 17  0  0  0  0  0  0  0  0999 V2000
    3.0000    0.0000    0.0000 C   0  0  0  0  0  0  0  0  0  0  0  0
    1.5000    0.0000    0.0000 C   0  0  0  0  0  0  0  0  0  0  0  0
    0.7500   -1.2990    0.0000 C   0  0  0  0  0  0  0  0  0  0  0  0
   -0.7500   -1.2990    0.0000 C   0  0  0  0  0  0  0  0  0  0  0  0
   -1.5000    0.0000    0.0000 C   0  0  0  0  0  0  0  0  0  0  0  0
   -0.7500    1.2990    0.0000 C   0  0  0  0  0  0  0  0  0  0  0  0
    0.7500    1.2990    0.0000 C   0  0  0  0  0  0  0  0  0  0  0  0
   -1.5000    2.5981    0.0000 C   0  0  0  0  0  0  0  0  0  0  0  0
   -0.7500    3.8971    0.0000 C   0  0  0  0  0  0  0  0  0  0  0  0
   -1.5000    5.1962    0.0000 C   0  0  0  0  0  0  0  0  0  0  0  0
   -3.0000    5.1962    0.0000 C   0  0  0  0  0  0  0  0  0  0  0  0
   -3.7500    3.8971    0.0000 C   0  0  0  0  0  0  0  0  0  0  0  0
   -3.0000    2.5981    0.0000 C   0  0  0  0  0  0  0  0  0  0  0  0
   -3.7500    6.4952    0.0000 N   0  0  0  0  0  0  0  0  0  0  0  0
   -0.7500    6.4952    0.0000 C   0  0  0  0  0  0  0  0  0  0  0  0
    1.5000   -2.5981    0.0000 N   0  0  0  0  0  0  0  0  0  0  0  0
  1  2  1  0
  2  3  2  0
  3  4  1  0
  4  5  2  0
  5  6  1  0
  6  7  2  0
  6  8  1  0
  8  9  2  0
  9 10  1  0
 10 11  2  0
 11 12  1  0
 12 13  2  0
 11 14  1  0
 10 15  1  0
  3 16  1  0
  7  2  1  0
 13  8  1  0
M  END
>  <name>  (665) 
4-(4-amino-3-methylphenyl)-2-methylaniline

>  <Outcome>  (665) 
2

>  <SMILES>  (665) 
Cc1cc(-c2ccc(N)c(C)c2)ccc1N

$$$$

     RDKit          2D

 32 33  0  0  0  0  0  0  0  0999 V2000
   -7.1547   -5.4995    0.0000 C   0  0  0  0  0  0  0  0  0  0  0  0
   -6.6146   -4.8758    0.0000 C   0  0  0  0  0  0  0  0  0  0  0  0
   -5.8045   -5.0318    0.0000 C   0  0  0  0  0  0  0  0  0  0  0  0
   -5.2644   -4.4081    0.0000 C   0  0  0  0  0  0  0  0  0  0  0  0
   -4.4543   -4.5640    0.0000 C   0  0  0  0  0  0  0  0  0  0  0  0
   -3.9142   -3.9404    0.0000 C   0  0  0  0  0  0  0  0  0  0  0  0
   -3.1040   -4.0963    0.0000 C   0  0  0  0  0  0  0  0  0  0  0  0
   -2.5639   -3.4726    0.0000 C   0  0  0  0  0  0  0  0  0  0  0  0
   -1.7538   -3.6286    0.0000 C   0  0  0  0  0  0  0  0  0  0  0  0
   -1.2137   -3.0049    0.0000 C   0  0  0  0  0  0  0  0  0  0  0  0
   -1.4838   -2.2254    0.0000 C   0  0  0  0  0  0  0  0  0  0  0  0
   -0.9437   -1.6017    0.0000 C   0  0  0  0  0  0  0  0  0  0  0  0
   -1.2137   -0.8222    0.0000 C   0  0  0  0  0  0  0  0  0  0  0  0
   -0.6736   -0.1985    0.0000 C   0  0  0  0  0  0  0  0  0  0  0  0
    0.1365   -0.3544    0.0000 C   0  0  0  0  0  0  0  0  0  0  0  0
    0.4065   -1.1340    0.0000 C   0  0  0  0  0  0  0  0  0  0  0  0
   -0.1335   -1.7576    0.0000 C   0  0  0  0  0  0  0  0  0  0  0  0
    0.1365   -2.5372    0.0000 C   0  0  0  0  0  0  0  0  0  0  0  0
   -0.4036   -3.1608    0.0000 C   0  0  0  0  0  0  0  0  0  0  0  0
   -0.1335   -3.9404    0.0000 C   0  0  0  0  0  0  0  0  0  0  0  0
   -0.6736   -4.5640    0.0000 C   0  0  0  0  0  0  0  0  0  0  0  0
   -0.4036   -5.3436    0.0000 C   0  0  0  0  0  0  0  0  0  0  0  0
    0.4065   -5.4995    0.0000 C   0  0  0  0  0  0  0  0  0  0  0  0
    0.9466   -4.8758    0.0000 C   0  0  0  0  0  0  0  0  0  0  0  0
    1.7568   -5.0318    0.0000 C   0  0  0  0  0  0  0  0  0  0  0  0
    2.2969   -4.4081    0.0000 C   0  0  0  0  0  0  0  0  0  0  0  0
    3.1070   -4.5640    0.0000 C   0  0  0  0  0  0  0  0  0  0  0  0
    3.6471   -3.9404    0.0000 C   0  0  0  0  0  0  0  0  0  0  0  0
    0.9466   -2.6931    0.0000 S   0  0  0  0  0  0  0  0  0  0  0  0
    1.7568   -2.8490    0.0000 O   0  0  0  0  0  0  0  0  0  0  0  0
    0.7907   -3.5032    0.0000 O   0  0  0  0  0  0  0  0  0  0  0  0
    1.1025   -1.8830    0.0000 O   0  0  0  0  0  0  0  0  0  0  0  0
  1  2  1  0
  2  3  1  0
  3  4  1  0
  4  5  1  0
  5  6  1  0
  6  7  1  0
  7  8  1  0
  8  9  1  0
  9 10  1  0
 11 10  2  0
 12 11  1  0
 12 13  2  0
 13 14  1  0
 14 15  2  0
 15 16  1  0
 16 17  2  0
 18 17  1  0
 19 18  2  0
 19 20  1  0
 20 21  1  0
 21 22  1  0
 22 23  1  0
 23 24  1  0
 24 25  1  0
 25 26  1  0
 26 27  1  0
 27 28  1  0
 18 29  1  0
 29 30  1  0
 29 31  2  0
 29 32  2  0
 10 19  1  0
 17 12  1  0
M  END
>  <name>  (666) 
Dinonylnaphthalenesulfonic acid

>  <Outcome>  (666) 
0

>  <SMILES>  (666) 
CCCCCCCCCc1cc2ccccc2c(S(=O)(=O)O)c1CCCCCCCCC

$$$$

     RDKit          2D

  6  4  0  0  0  0  0  0  0  0999 V2000
    0.0000    0.0000    0.0000 O   0  0  0  0  0  1  0  0  0  0  0  0
    1.2990    0.7500    0.0000 S   0  0  0  0  0  0  0  0  0  0  0  0
    2.0490   -0.5490    0.0000 O   0  0  0  0  0  0  0  0  0  0  0  0
    0.5490    2.0490    0.0000 O   0  0  0  0  0  0  0  0  0  0  0  0
    2.5981    1.5000    0.0000 O   0  0  0  0  0  1  0  0  0  0  0  0
    3.5981    0.0000    0.0000 Zn  0  0  0  0  0 15  0  0  0  0  0  0
  1  2  1  0
  2  3  2  0
  2  4  2  0
  2  5  1  0
M  CHG  3   1  -1   5  -1   6   2
M  END
>  <name>  (667) 
zinc;sulfate

>  <Outcome>  (667) 
2

>  <SMILES>  (667) 
O=S(=O)([O-])[O-].[Zn+2]

$$$$

     RDKit          2D

  9  9  0  0  0  0  0  0  0  0999 V2000
    3.0000    0.0000    0.0000 C   0  0  0  0  0  0  0  0  0  0  0  0
    1.5000    0.0000    0.0000 C   0  0  0  0  0  0  0  0  0  0  0  0
    0.7500   -1.2990    0.0000 C   0  0  0  0  0  0  0  0  0  0  0  0
   -0.7500   -1.2990    0.0000 C   0  0  0  0  0  0  0  0  0  0  0  0
   -1.5000    0.0000    0.0000 C   0  0  0  0  0  0  0  0  0  0  0  0
   -0.7500    1.2990    0.0000 C   0  0  0  0  0  0  0  0  0  0  0  0
    0.7500    1.2990    0.0000 C   0  0  0  0  0  0  0  0  0  0  0  0
   -3.0000    0.0000    0.0000 C   0  0  0  0  0  0  0  0  0  0  0  0
   -1.5000   -2.5981    0.0000 C   0  0  0  0  0  0  0  0  0  0  0  0
  1  2  1  0
  2  3  2  0
  3  4  1  0
  4  5  2  0
  5  6  1  0
  6  7  2  0
  5  8  1  0
  4  9  1  0
  7  2  1  0
M  END
>  <name>  (668) 
1,2,4-trimethylbenzene

>  <Outcome>  (668) 
2

>  <SMILES>  (668) 
Cc1ccc(C)c(C)c1

$$$$

     RDKit          2D

 12 11  0  0  0  0  0  0  0  0999 V2000
    0.0000    0.0000    0.0000 C   0  0  0  0  0  0  0  0  0  0  0  0
    1.2990    0.7500    0.0000 N   0  0  0  0  0  0  0  0  0  0  0  0
    2.5981   -0.0000    0.0000 C   0  0  0  0  0  0  0  0  0  0  0  0
    1.2990    2.2500    0.0000 C   0  0  0  0  0  0  0  0  0  0  0  0
    2.5981    3.0000    0.0000 C   0  0  0  0  0  0  0  0  0  0  0  0
    2.5981    4.5000    0.0000 C   0  0  0  0  0  0  0  0  0  0  0  0
    3.8971    5.2500    0.0000 C   0  0  0  0  0  0  0  0  0  0  0  0
    3.8971    6.7500    0.0000 C   0  0  0  0  0  0  0  0  0  0  0  0
    5.1962    7.5000    0.0000 C   0  0  0  0  0  0  0  0  0  0  0  0
    5.1962    9.0000    0.0000 N   0  0  0  0  0  0  0  0  0  0  0  0
    6.4952    9.7500    0.0000 C   0  0  0  0  0  0  0  0  0  0  0  0
    3.8971    9.7500    0.0000 C   0  0  0  0  0  0  0  0  0  0  0  0
  1  2  1  0
  2  3  1  0
  2  4  1  0
  4  5  1  0
  5  6  1  0
  6  7  1  0
  7  8  1  0
  8  9  1  0
  9 10  1  0
 10 11  1  0
 10 12  1  0
M  END
>  <name>  (669) 
N,N,N',N'-tetramethylhexane-1,6-diamine

>  <Outcome>  (669) 
2

>  <SMILES>  (669) 
CN(C)CCCCCCN(C)C

$$$$

     RDKit          2D

  9  9  0  0  0  0  0  0  0  0999 V2000
    0.7145    2.0625    0.0000 N   0  0  0  0  0  0  0  0  0  0  0  0
    0.7145    1.2375    0.0000 C   0  0  0  0  0  0  0  0  0  0  0  0
    1.4289    0.8250    0.0000 C   0  0  0  0  0  0  0  0  0  0  0  0
    1.4289    0.0000    0.0000 C   0  0  0  0  0  0  0  0  0  0  0  0
    0.7145   -0.4125    0.0000 C   0  0  0  0  0  0  0  0  0  0  0  0
   -0.0000    0.0000    0.0000 C   0  0  0  0  0  0  0  0  0  0  0  0
   -0.7145   -0.4125    0.0000 Cl  0  0  0  0  0  0  0  0  0  0  0  0
   -0.0000    0.8250    0.0000 C   0  0  0  0  0  0  0  0  0  0  0  0
   -0.7145    1.2375    0.0000 Cl  0  0  0  0  0  0  0  0  0  0  0  0
  1  2  1  0
  2  3  2  0
  3  4  1  0
  4  5  2  0
  5  6  1  0
  6  7  1  0
  6  8  2  0
  2  8  1  0
  8  9  1  0
M  END
>  <name>  (670) 
2,3-dichloroaniline

>  <Outcome>  (670) 
0

>  <SMILES>  (670) 
Nc1cccc(Cl)c1Cl

$$$$

     RDKit          2D

 12 12  0  0  0  0  0  0  0  0999 V2000
    3.0000    0.0000    0.0000 C   0  0  0  0  0  0  0  0  0  0  0  0
    1.5000    0.0000    0.0000 C   0  0  0  0  0  0  0  0  0  0  0  0
    0.7500   -1.2990    0.0000 C   0  0  0  0  0  0  0  0  0  0  0  0
   -0.7500   -1.2990    0.0000 C   0  0  0  0  0  0  0  0  0  0  0  0
   -1.5000    0.0000    0.0000 C   0  0  0  0  0  0  0  0  0  0  0  0
   -0.7500    1.2990    0.0000 C   0  0  0  0  0  0  0  0  0  0  0  0
    0.7500    1.2990    0.0000 C   0  0  0  0  0  0  0  0  0  0  0  0
   -1.5000    2.5981    0.0000 O   0  0  0  0  0  0  0  0  0  0  0  0
   -0.7500    3.8971    0.0000 O   0  0  0  0  0  0  0  0  0  0  0  0
   -3.0000    0.0000    0.0000 C   0  0  0  0  0  0  0  0  0  0  0  0
   -3.7500    1.2990    0.0000 C   0  0  0  0  0  0  0  0  0  0  0  0
   -3.7500   -1.2990    0.0000 C   0  0  0  0  0  0  0  0  0  0  0  0
  1  2  1  0
  2  3  1  0
  3  4  1  0
  4  5  1  0
  5  6  1  0
  6  7  1  0
  6  8  1  0
  8  9  1  0
  5 10  1  0
 10 11  1  0
 10 12  1  0
  7  2  1  0
M  END
>  <name>  (671) 
2-hydroperoxy-4-methyl-1-propan-2-ylcyclohexane

>  <Outcome>  (671) 
2

>  <SMILES>  (671) 
CC1CCC(C(C)C)C(OO)C1

$$$$

     RDKit          2D

  4  3  0  0  0  0  0  0  0  0999 V2000
    2.0625   -0.7145    0.0000 C   0  0  0  0  0  0  0  0  0  0  0  0
    1.2375   -0.7145    0.0000 C   0  0  0  0  0  0  0  0  0  0  0  0
    0.8250   -0.0000    0.0000 C   0  0  0  0  0  0  0  0  0  0  0  0
    0.0000   -0.0000    0.0000 Br  0  0  0  0  0  0  0  0  0  0  0  0
  1  2  1  0
  2  3  1  0
  3  4  1  0
M  END
>  <name>  (672) 
1-bromopropane

>  <Outcome>  (672) 
0

>  <SMILES>  (672) 
CCCBr

$$$$

     RDKit          2D

  7  6  0  0  0  0  0  0  0  0999 V2000
    1.3243    2.2320    0.0000 C   0  0  0  0  0  0  0  0  0  0  0  0
    0.9118    1.5175    0.0000 C   0  0  0  0  0  0  0  0  0  0  0  0
    0.0868    1.5175    0.0000 C   0  0  0  0  0  0  0  0  0  0  0  0
    1.3243    0.8031    0.0000 C   0  0  0  0  0  0  0  0  0  0  0  0
    0.9118    0.0886    0.0000 C   0  0  0  0  0  0  0  0  0  0  0  0
    1.3243   -0.6259    0.0000 C   0  0  0  0  0  0  0  0  0  0  0  0
    0.0868    0.0886    0.0000 O   0  0  0  0  0  0  0  0  0  0  0  0
  1  2  1  0
  2  3  1  0
  2  4  1  0
  4  5  1  0
  5  6  1  0
  5  7  1  0
M  END
>  <name>  (673) 
4-methylpentan-2-ol

>  <Outcome>  (673) 
1

>  <SMILES>  (673) 
CC(C)CC(C)O

$$$$

     RDKit          2D

 20 19  0  0  0  0  0  0  0  0999 V2000
    0.0000    0.0000    0.0000 C   0  0  0  0  0  0  0  0  0  0  0  0
    1.2990    0.7500    0.0000 C   0  0  0  0  0  0  0  0  0  0  0  0
    2.5981   -0.0000    0.0000 C   0  0  0  0  0  0  0  0  0  0  0  0
    3.8971    0.7500    0.0000 C   0  0  0  0  0  0  0  0  0  0  0  0
    5.1962   -0.0000    0.0000 C   0  0  0  0  0  0  0  0  0  0  0  0
    6.4952    0.7500    0.0000 C   0  0  0  0  0  0  0  0  0  0  0  0
    7.7942   -0.0000    0.0000 C   0  0  0  0  0  0  0  0  0  0  0  0
    9.0933    0.7500    0.0000 C   0  0  0  0  0  0  0  0  0  0  0  0
   10.3923   -0.0000    0.0000 C   0  0  0  0  0  0  0  0  0  0  0  0
   11.6913    0.7500    0.0000 C   0  0  0  0  0  0  0  0  0  0  0  0
   12.9904   -0.0000    0.0000 C   0  0  0  0  0  0  0  0  0  0  0  0
   14.2894    0.7500    0.0000 C   0  0  0  0  0  0  0  0  0  0  0  0
   15.5885   -0.0000    0.0000 C   0  0  0  0  0  0  0  0  0  0  0  0
   16.8875    0.7500    0.0000 C   0  0  0  0  0  0  0  0  0  0  0  0
   18.1865   -0.0000    0.0000 C   0  0  0  0  0  0  0  0  0  0  0  0
   19.4856    0.7500    0.0000 C   0  0  0  0  0  0  0  0  0  0  0  0
   20.7846   -0.0000    0.0000 Si  0  0  0  0  0  4  0  0  0  0  0  0
   22.0836   -0.7500    0.0000 Cl  0  0  0  0  0  0  0  0  0  0  0  0
   21.5346    1.2990    0.0000 Cl  0  0  0  0  0  0  0  0  0  0  0  0
   20.0346   -1.2990    0.0000 Cl  0  0  0  0  0  0  0  0  0  0  0  0
  1  2  1  0
  2  3  1  0
  3  4  1  0
  4  5  1  0
  5  6  1  0
  6  7  1  0
  7  8  1  0
  8  9  1  0
  9 10  1  0
 10 11  1  0
 11 12  1  0
 12 13  1  0
 13 14  1  0
 14 15  1  0
 15 16  1  0
 16 17  1  0
 17 18  1  0
 17 19  1  0
 17 20  1  0
M  END
>  <name>  (674) 
trichloro(hexadecyl)silane

>  <Outcome>  (674) 
2

>  <SMILES>  (674) 
CCCCCCCCCCCCCCCC[Si](Cl)(Cl)Cl

$$$$

     RDKit          2D

 12 11  0  0  0  0  0  0  0  0999 V2000
   -0.0001    0.0000    0.0000 C   0  0  0  0  0  0  0  0  0  0  0  0
    0.7143    0.4125    0.0000 C   0  0  0  0  0  0  0  0  0  0  0  0
    1.4288    0.0000    0.0000 C   0  0  0  0  0  0  0  0  0  0  0  0
    2.1433    0.4125    0.0000 C   0  0  0  0  0  0  0  0  0  0  0  0
    2.8577    0.0000    0.0000 C   0  0  0  0  0  0  0  0  0  0  0  0
    3.5722    0.4125    0.0000 C   0  0  0  0  0  0  0  0  0  0  0  0
    4.2867    0.0000    0.0000 C   0  0  0  0  0  0  0  0  0  0  0  0
    5.0012    0.4125    0.0000 C   0  0  0  0  0  0  0  0  0  0  0  0
    5.7156    0.0000    0.0000 C   0  0  0  0  0  0  0  0  0  0  0  0
    6.4301    0.4125    0.0000 C   0  0  0  0  0  0  0  0  0  0  0  0
    7.1446    0.0000    0.0000 C   0  0  0  0  0  0  0  0  0  0  0  0
    7.8590    0.4125    0.0000 O   0  0  0  0  0  0  0  0  0  0  0  0
  1  2  1  0
  2  3  1  0
  3  4  1  0
  4  5  1  0
  5  6  1  0
  6  7  1  0
  7  8  1  0
  8  9  1  0
  9 10  1  0
 10 11  1  0
 11 12  1  0
M  END
>  <name>  (675) 
1-Undecanol

>  <Outcome>  (675) 
0

>  <SMILES>  (675) 
CCCCCCCCCCCO

$$$$

     RDKit          2D

 14 14  0  0  0  0  0  0  0  0999 V2000
    2.4193   -2.1109    0.0000 C   0  0  0  0  0  0  0  0  0  0  0  0
    2.4193   -1.2859    0.0000 C   0  0  0  0  0  0  0  0  0  0  0  0
    3.1338   -0.8734    0.0000 O   0  0  0  0  0  0  0  0  0  0  0  0
    1.7049   -0.8734    0.0000 C   0  0  0  0  0  0  0  0  0  0  0  0
    1.7049   -0.0484    0.0000 C   0  0  0  0  0  0  0  0  0  0  0  0
    0.9904    0.3641    0.0000 C   0  0  0  0  0  0  0  0  0  0  0  0
    0.9904    1.1891    0.0000 C   0  0  0  0  0  0  0  0  0  0  0  0
    1.7049    1.6016    0.0000 C   0  0  0  0  0  0  0  0  0  0  0  0
    0.2759    1.6016    0.0000 C   0  0  0  0  0  0  0  0  0  0  0  0
   -0.4386    1.1891    0.0000 C   0  0  0  0  0  0  0  0  0  0  0  0
   -0.4386    0.3641    0.0000 C   0  0  0  0  0  0  0  0  0  0  0  0
    0.2759   -0.0484    0.0000 C   0  0  0  0  0  0  0  0  0  0  0  0
   -0.2544   -0.6804    0.0000 C   0  0  0  0  0  0  0  0  0  0  0  0
    0.8062   -0.6804    0.0000 C   0  0  0  0  0  0  0  0  0  0  0  0
  1  2  1  0
  2  3  2  0
  4  2  1  0
  4  5  2  3
  5  6  1  0
  7  6  2  0
  7  8  1  0
  9  7  1  0
 10  9  1  0
 11 10  1  0
 12 11  1  0
 12 13  1  0
 12 14  1  0
  6 12  1  0
M  END
>  <name>  (676) 
4-(2,6,6-Trimethyl-cyclohex-1-enyl)-but-3-en-2-one

>  <Outcome>  (676) 
0

>  <SMILES>  (676) 
CC(=O)C=CC1=C(C)CCCC1(C)C

$$$$

     RDKit          2D

  1  0  0  0  0  0  0  0  0  0999 V2000
    0.0000    0.0000    0.0000 C   0  0  0  0  0 15  0  0  0  0  0  0
M  END
>  <name>  (677) 
carbon

>  <Outcome>  (677) 
2

>  <SMILES>  (677) 
[C]

$$$$

     RDKit          2D

 11 11  0  0  0  0  0  0  0  0999 V2000
    1.1810    1.0907    0.0000 C   0  0  0  0  0  0  0  0  0  0  0  0
    0.4665    0.6782    0.0000 C   0  0  0  0  0  0  0  0  0  0  0  0
   -0.2480    1.0907    0.0000 C   0  0  0  0  0  0  0  0  0  0  0  0
   -0.9625    0.6782    0.0000 C   0  0  0  0  0  0  0  0  0  0  0  0
   -0.9625   -0.1468    0.0000 C   0  0  0  0  0  0  0  0  0  0  0  0
   -0.2480   -0.5593    0.0000 C   0  0  0  0  0  0  0  0  0  0  0  0
    0.4665   -0.1468    0.0000 C   0  0  0  0  0  0  0  0  0  0  0  0
   -1.6769   -0.5593    0.0000 C   0  0  0  0  0  0  0  0  0  0  0  0
   -2.3914   -0.9718    0.0000 C   0  0  0  0  0  0  0  0  0  0  0  0
   -2.0894    0.1551    0.0000 C   0  0  0  0  0  0  0  0  0  0  0  0
   -1.2644   -1.2738    0.0000 C   0  0  0  0  0  0  0  0  0  0  0  0
  1  2  1  0
  3  2  2  0
  4  3  1  0
  5  4  2  0
  6  5  1  0
  7  6  2  0
  5  8  1  0
  8  9  1  0
  8 10  1  0
  8 11  1  0
  2  7  1  0
M  END
>  <name>  (678) 
4-tert-Butyltoluene

>  <Outcome>  (678) 
1

>  <SMILES>  (678) 
Cc1ccc(C(C)(C)C)cc1

$$$$

     RDKit          2D

  7  6  0  0  0  0  0  0  0  0999 V2000
    2.6228   -1.5801    0.0000 C   0  0  0  0  0  0  0  0  0  0  0  0
    1.7978   -1.5801    0.0000 C   0  0  0  0  0  0  0  0  0  0  0  0
    1.3853   -0.8656    0.0000 C   0  0  0  0  0  0  0  0  0  0  0  0
    2.0998   -0.4531    0.0000 C   0  0  0  0  0  0  0  0  0  0  0  0
    0.6709   -1.2781    0.0000 C   0  0  0  0  0  0  0  0  0  0  0  0
    0.9728   -0.1511    0.0000 O   0  0  0  0  0  0  0  0  0  0  0  0
    0.1478   -0.1511    0.0000 O   0  0  0  0  0  0  0  0  0  0  0  0
  1  2  1  0
  2  3  1  0
  3  4  1  0
  3  5  1  0
  3  6  1  0
  6  7  1  0
M  END
>  <name>  (679) 
1,1-dimethylpropyl hydroperoxide

>  <Outcome>  (679) 
1

>  <SMILES>  (679) 
CCC(C)(C)OO

$$$$

     RDKit          2D

  5  3  0  0  0  0  0  0  0  0999 V2000
    0.0000    0.0000    0.0000 N   0  0  0  0  0  4  0  0  0  0  0  0
   -0.0000   -1.5000    0.0000 O   0  0  0  0  0  0  0  0  0  0  0  0
    1.2990    0.7500    0.0000 O   0  0  0  0  0  1  0  0  0  0  0  0
   -1.2990    0.7500    0.0000 O   0  0  0  0  0  1  0  0  0  0  0  0
    0.0000    1.7500    0.0000 K   0  0  0  0  0 15  0  0  0  0  0  0
  1  2  2  0
  1  3  1  0
  1  4  1  0
M  CHG  4   1   1   3  -1   4  -1   5   1
M  END
>  <name>  (680) 
potassium;nitrate

>  <Outcome>  (680) 
2

>  <SMILES>  (680) 
O=[N+]([O-])[O-].[K+]

$$$$

     RDKit          2D

  7  6  0  0  0  0  0  0  0  0999 V2000
    0.0000    0.0000    0.0000 C   0  0  0  0  0  0  0  0  0  0  0  0
    1.2990    0.7500    0.0000 C   0  0  0  0  0  0  0  0  0  0  0  0
    2.5981    1.5000    0.0000 C   0  0  0  0  0  0  0  0  0  0  0  0
    3.8971    0.7500    0.0000 O   0  0  0  0  0  0  0  0  0  0  0  0
    2.5981    3.0000    0.0000 O   0  0  0  0  0  0  0  0  0  0  0  0
    2.0490   -0.5490    0.0000 Cl  0  0  0  0  0  0  0  0  0  0  0  0
    0.5490    2.0490    0.0000 Cl  0  0  0  0  0  0  0  0  0  0  0  0
  1  2  1  0
  2  3  1  0
  3  4  2  0
  3  5  1  0
  2  6  1  0
  2  7  1  0
M  END
>  <name>  (681) 
2,2-dichloropropanoic acid

>  <Outcome>  (681) 
2

>  <SMILES>  (681) 
CC(Cl)(Cl)C(=O)O

$$$$

     RDKit          2D

 12 12  0  0  0  0  0  0  0  0999 V2000
    1.9060    0.8446    0.0000 C   0  0  0  0  0  0  0  0  0  0  0  0
    2.7310    0.8446    0.0000 C   0  0  0  0  0  0  0  0  0  0  0  0
    3.1435    0.1302    0.0000 C   0  0  0  0  0  0  0  0  0  0  0  0
    2.7310   -0.5843    0.0000 C   0  0  0  0  0  0  0  0  0  0  0  0
    1.9060   -0.5843    0.0000 C   0  0  0  0  0  0  0  0  0  0  0  0
    1.4935   -1.2988    0.0000 C   0  0  0  0  0  0  0  0  0  0  0  0
    0.6685   -1.2988    0.0000 C   0  0  0  0  0  0  0  0  0  0  0  0
    0.2560   -0.5843    0.0000 C   0  0  0  0  0  0  0  0  0  0  0  0
    0.6685    0.1302    0.0000 C   0  0  0  0  0  0  0  0  0  0  0  0
    0.2560    0.8446    0.0000 C   0  0  0  0  0  0  0  0  0  0  0  0
    0.6685    1.5591    0.0000 C   0  0  0  0  0  0  0  0  0  0  0  0
    1.4935    1.5591    0.0000 C   0  0  0  0  0  0  0  0  0  0  0  0
  1  2  2  3
  2  3  1  0
  3  4  1  0
  5  4  1  0
  5  6  2  3
  6  7  1  0
  7  8  1  0
  9  8  1  0
  9 10  2  3
 10 11  1  0
 11 12  1  0
  1 12  1  0
M  END
>  <name>  (682) 
cyclododeca-1,5,9-triene

>  <Outcome>  (682) 
0

>  <SMILES>  (682) 
C1=CCCC=CCCC=CCC1

$$$$

     RDKit          2D

 36 39  0  0  0  0  0  0  0  0999 V2000
    2.1313   -6.9199    0.0000 O   0  0  0  0  0  0  0  0  0  0  0  0
    2.1313   -7.7449    0.0000 S   0  0  0  0  0  0  0  0  0  0  0  0
    1.3063   -7.7449    0.0000 O   0  0  0  0  0  0  0  0  0  0  0  0
    2.9563   -7.7449    0.0000 O   0  0  0  0  0  0  0  0  0  0  0  0
    2.1313   -8.5699    0.0000 C   0  0  0  0  0  0  0  0  0  0  0  0
    2.8457   -8.9824    0.0000 C   0  0  0  0  0  0  0  0  0  0  0  0
    2.8457   -9.8074    0.0000 C   0  0  0  0  0  0  0  0  0  0  0  0
    2.1313  -10.2199    0.0000 C   0  0  0  0  0  0  0  0  0  0  0  0
    1.4168   -9.8074    0.0000 C   0  0  0  0  0  0  0  0  0  0  0  0
    1.4168   -8.9824    0.0000 C   0  0  0  0  0  0  0  0  0  0  0  0
    0.7023   -8.5699    0.0000 C   0  0  0  0  0  0  0  0  0  0  0  0
   -0.0122   -8.9824    0.0000 C   0  0  0  0  0  0  0  0  0  0  0  0
   -0.7266   -8.5699    0.0000 C   0  0  0  0  0  0  0  0  0  0  0  0
   -1.4411   -8.9824    0.0000 C   0  0  0  0  0  0  0  0  0  0  0  0
   -2.1556   -8.5699    0.0000 C   0  0  0  0  0  0  0  0  0  0  0  0
   -2.1556   -7.7449    0.0000 C   0  0  0  0  0  0  0  0  0  0  0  0
   -2.8700   -7.3324    0.0000 C   0  0  0  0  0  0  0  0  0  0  0  0
   -3.5845   -7.7449    0.0000 C   0  0  0  0  0  0  0  0  0  0  0  0
   -4.2990   -7.3324    0.0000 C   0  0  0  0  0  0  0  0  0  0  0  0
   -4.2990   -6.5074    0.0000 C   0  0  0  0  0  0  0  0  0  0  0  0
   -5.0134   -6.0949    0.0000 C   0  0  0  0  0  0  0  0  0  0  0  0
   -5.7279   -6.5074    0.0000 C   0  0  0  0  0  0  0  0  0  0  0  0
   -6.4424   -6.0949    0.0000 C   0  0  0  0  0  0  0  0  0  0  0  0
   -7.1569   -6.5074    0.0000 C   0  0  0  0  0  0  0  0  0  0  0  0
   -7.8713   -6.0949    0.0000 C   0  0  0  0  0  0  0  0  0  0  0  0
   -7.8713   -5.2699    0.0000 C   0  0  0  0  0  0  0  0  0  0  0  0
   -7.1569   -4.8574    0.0000 C   0  0  0  0  0  0  0  0  0  0  0  0
   -6.4424   -5.2699    0.0000 C   0  0  0  0  0  0  0  0  0  0  0  0
   -5.7279   -4.8574    0.0000 S   0  0  0  0  0  0  0  0  0  0  0  0
   -5.0134   -4.4449    0.0000 O   0  0  0  0  0  0  0  0  0  0  0  0
   -5.3154   -5.5718    0.0000 O   0  0  0  0  0  0  0  0  0  0  0  0
   -6.1404   -4.1429    0.0000 O   0  0  0  0  0  0  0  0  0  0  0  0
   -3.5845   -6.0949    0.0000 C   0  0  0  0  0  0  0  0  0  0  0  0
   -2.8700   -6.5074    0.0000 C   0  0  0  0  0  0  0  0  0  0  0  0
   -1.4411   -7.3324    0.0000 C   0  0  0  0  0  0  0  0  0  0  0  0
   -0.7266   -7.7449    0.0000 C   0  0  0  0  0  0  0  0  0  0  0  0
  1  2  2  0
  2  3  2  0
  2  4  1  0
  2  5  1  0
  5  6  2  0
  6  7  1  0
  7  8  2  0
  8  9  1  0
  9 10  2  0
  5 10  1  0
 11 10  1  0
 11 12  2  3
 12 13  1  0
 13 14  2  0
 14 15  1  0
 15 16  2  0
 16 17  1  0
 17 18  2  0
 18 19  1  0
 19 20  2  0
 21 20  1  0
 21 22  2  3
 22 23  1  0
 23 24  2  0
 24 25  1  0
 25 26  2  0
 26 27  1  0
 27 28  2  0
 23 28  1  0
 28 29  1  0
 29 30  2  0
 29 31  2  0
 29 32  1  0
 20 33  1  0
 33 34  2  0
 17 34  1  0
 16 35  1  0
 35 36  2  0
 13 36  1  0
M  END
>  <name>  (683) 
disodium 2-[(E)-2-(4-{4-[(E)-2-(2-sulfonatophenyl)ethenyl]phenyl}phenyl)ethenyl]benzene-1-sulfonate

>  <Outcome>  (683) 
1

>  <SMILES>  (683) 
O=S(=O)(O)c1ccccc1C=Cc1ccc(-c2ccc(C=Cc3ccccc3S(=O)(=O)O)cc2)cc1

$$$$

     RDKit          2D

 17 19  0  0  0  0  0  0  0  0999 V2000
   -2.4110    0.7647    0.0000 C   0  0  0  0  0  0  0  0  0  0  0  0
   -1.6966    0.3522    0.0000 C   0  0  0  0  0  0  0  0  0  0  0  0
   -0.9821    0.7647    0.0000 C   0  0  0  0  0  0  0  0  0  0  0  0
   -0.7759   -0.0603    0.0000 C   0  0  0  0  0  0  0  0  0  0  0  0
   -0.9821   -0.8853    0.0000 C   0  0  0  0  0  0  0  0  0  0  0  0
   -0.2676   -0.4728    0.0000 C   0  0  0  0  0  0  0  0  0  0  0  0
   -0.2676    0.3522    0.0000 C   0  0  0  0  0  0  0  0  0  0  0  0
    0.4468    0.7647    0.0000 C   0  0  0  0  0  0  0  0  0  0  0  0
    1.1613    0.3522    0.0000 C   0  0  0  0  0  0  0  0  0  0  0  0
    1.8758    0.7647    0.0000 C   0  0  0  0  0  0  0  0  0  0  0  0
    1.8758    1.5897    0.0000 C   0  0  0  0  0  0  0  0  0  0  0  0
    1.1613    2.0022    0.0000 C   0  0  0  0  0  0  0  0  0  0  0  0
    1.1613    2.8272    0.0000 O   0  0  0  0  0  0  0  0  0  0  0  0
    0.4468    1.5897    0.0000 C   0  0  0  0  0  0  0  0  0  0  0  0
   -1.6966   -0.4728    0.0000 C   0  0  0  0  0  0  0  0  0  0  0  0
   -1.9787   -1.2481    0.0000 C   0  0  0  0  0  0  0  0  0  0  0  0
   -2.5090   -0.3295    0.0000 C   0  0  0  0  0  0  0  0  0  0  0  0
  1  2  1  0
  3  2  1  0
  3  4  1  0
  4  5  1  0
  5  6  1  0
  6  7  1  0
  7  8  1  0
  9  8  1  0
 10  9  1  0
 11 10  1  0
 12 11  1  0
 12 13  1  0
 14 12  1  0
 15  5  1  0
 15 16  1  0
 15 17  1  0
  2 15  1  0
  7  3  1  0
  8 14  1  0
M  END
>  <name>  (684) 
3-(5,5,6-Trimethylbicyclo[2.2.1]hept-2-yl)cyclohexanol

>  <Outcome>  (684) 
0

>  <SMILES>  (684) 
CC1C2CC(CC2C2CCCC(O)C2)C1(C)C

$$$$

     RDKit          2D

  7  6  0  0  0  0  0  0  0  0999 V2000
    2.4172    0.0862    0.0000 C   0  0  0  0  0  0  0  0  0  0  0  0
    2.0047    0.8007    0.0000 O   0  0  0  0  0  0  0  0  0  0  0  0
    1.1797    0.8007    0.0000 Si  0  0  0  0  0  3  0  0  0  0  0  0
    0.7672    1.5151    0.0000 O   0  0  0  0  0  0  0  0  0  0  0  0
   -0.0578    1.5151    0.0000 C   0  0  0  0  0  0  0  0  0  0  0  0
    0.7672    0.0862    0.0000 O   0  0  0  0  0  0  0  0  0  0  0  0
   -0.0578    0.0862    0.0000 C   0  0  0  0  0  0  0  0  0  0  0  0
  1  2  1  0
  2  3  1  0
  3  4  1  0
  4  5  1  0
  3  6  1  0
  6  7  1  0
M  RAD  1   3   2
M  END
>  <name>  (685) 
trimethoxysilane

>  <Outcome>  (685) 
1

>  <SMILES>  (685) 
CO[Si](OC)OC

$$$$

     RDKit          2D

 13 13  0  0  0  0  0  0  0  0999 V2000
    1.4289    2.4750    0.0000 O   0  0  0  0  0  0  0  0  0  0  0  0
    0.7145    2.0625    0.0000 N   0  0  0  0  0  0  0  0  0  0  0  0
   -0.0000    2.4750    0.0000 O   0  0  0  0  0  0  0  0  0  0  0  0
    0.7145    1.2375    0.0000 C   0  0  0  0  0  0  0  0  0  0  0  0
    1.4289    0.8250    0.0000 C   0  0  0  0  0  0  0  0  0  0  0  0
    1.4289   -0.0000    0.0000 C   0  0  0  0  0  0  0  0  0  0  0  0
    0.7145   -0.4125    0.0000 C   0  0  0  0  0  0  0  0  0  0  0  0
   -0.0000   -0.0000    0.0000 C   0  0  0  0  0  0  0  0  0  0  0  0
   -0.7145   -0.4125    0.0000 S   0  0  0  0  0  0  0  0  0  0  0  0
   -1.4289   -0.8250    0.0000 O   0  0  0  0  0  0  0  0  0  0  0  0
   -1.1270    0.3020    0.0000 O   0  0  0  0  0  0  0  0  0  0  0  0
   -0.3020   -1.1270    0.0000 O   0  0  0  0  0  0  0  0  0  0  0  0
   -0.0000    0.8250    0.0000 C   0  0  0  0  0  0  0  0  0  0  0  0
  1  2  1  0
  2  3  2  0
  2  4  1  0
  4  5  2  0
  5  6  1  0
  6  7  2  0
  7  8  1  0
  8  9  1  0
  9 10  2  0
  9 11  2  0
  9 12  1  0
  8 13  2  0
  4 13  1  0
M  CHG  2   1  -1   2   1
M  END
>  <name>  (686) 
sodium 3-nitrobenzene-1-sulfonate

>  <Outcome>  (686) 
0

>  <SMILES>  (686) 
O=[N+]([O-])c1cccc(S(=O)(=O)O)c1

$$$$

     RDKit          2D

  5  4  0  0  0  0  0  0  0  0999 V2000
    0.0000    0.0000    0.0000 C   0  0  0  0  0  0  0  0  0  0  0  0
    1.2990    0.7500    0.0000 C   0  0  0  0  0  0  0  0  0  0  0  0
    2.5981   -0.0000    0.0000 N   0  0  0  0  0  4  0  0  0  0  0  0
    2.5981   -1.5000    0.0000 O   0  0  0  0  0  0  0  0  0  0  0  0
    3.8971    0.7500    0.0000 O   0  0  0  0  0  1  0  0  0  0  0  0
  1  2  1  0
  2  3  1  0
  3  4  2  0
  3  5  1  0
M  CHG  2   3   1   5  -1
M  END
>  <name>  (687) 
1-nitroethane

>  <Outcome>  (687) 
2

>  <SMILES>  (687) 
CC[N+](=O)[O-]

$$$$

     RDKit          2D

  8  8  0  0  0  0  0  0  0  0999 V2000
    0.7145    2.0625    0.0000 N   0  0  0  0  0  0  0  0  0  0  0  0
    0.7145    1.2375    0.0000 C   0  0  0  0  0  0  0  0  0  0  0  0
    1.4289    0.8250    0.0000 C   0  0  0  0  0  0  0  0  0  0  0  0
    1.4289    0.0000    0.0000 C   0  0  0  0  0  0  0  0  0  0  0  0
    0.7145   -0.4125    0.0000 C   0  0  0  0  0  0  0  0  0  0  0  0
   -0.0000    0.0000    0.0000 C   0  0  0  0  0  0  0  0  0  0  0  0
   -0.7145   -0.4125    0.0000 N   0  0  0  0  0  0  0  0  0  0  0  0
   -0.0000    0.8250    0.0000 C   0  0  0  0  0  0  0  0  0  0  0  0
  1  2  1  0
  2  3  2  0
  3  4  1  0
  4  5  2  0
  5  6  1  0
  6  7  1  0
  6  8  2  0
  2  8  1  0
M  END
>  <name>  (688) 
benzene-1,3-diamine

>  <Outcome>  (688) 
1

>  <SMILES>  (688) 
Nc1cccc(N)c1

$$$$

     RDKit          2D

  6  5  0  0  0  0  0  0  0  0999 V2000
    0.0000    0.0000    0.0000 C   0  0  0  0  0  0  0  0  0  0  0  0
    1.2990    0.7500    0.0000 C   0  0  0  0  0  0  0  0  0  0  0  0
    2.5981   -0.0000    0.0000 N   0  0  0  0  0  0  0  0  0  0  0  0
    3.8971    0.7500    0.0000 C   0  0  0  0  0  0  0  0  0  0  0  0
    5.1962   -0.0000    0.0000 C   0  0  0  0  0  0  0  0  0  0  0  0
    6.4952    0.7500    0.0000 O   0  0  0  0  0  0  0  0  0  0  0  0
  1  2  1  0
  2  3  1  0
  3  4  1  0
  4  5  1  0
  5  6  1  0
M  END
>  <name>  (689) 
2-(ethylamino)ethanol

>  <Outcome>  (689) 
2

>  <SMILES>  (689) 
CCNCCO

$$$$

     RDKit          2D

  6  5  0  0  0  0  0  0  0  0999 V2000
    2.0625    0.7145    0.0000 O   0  0  0  0  0  0  0  0  0  0  0  0
    1.6500    0.0000    0.0000 C   0  0  0  0  0  0  0  0  0  0  0  0
    0.8250    0.0000    0.0000 C   0  0  0  0  0  0  0  0  0  0  0  0
    0.0000    0.0000    0.0000 C   0  0  0  0  0  0  0  0  0  0  0  0
   -0.8250    0.0000    0.0000 C   0  0  0  0  0  0  0  0  0  0  0  0
   -1.2375   -0.7145    0.0000 O   0  0  0  0  0  0  0  0  0  0  0  0
  1  2  1  0
  2  3  1  0
  3  4  3  0
  4  5  1  0
  5  6  1  0
M  END
>  <name>  (690) 
but-2-yne-1,4-diol

>  <Outcome>  (690) 
1

>  <SMILES>  (690) 
OCC#CCO

$$$$

     RDKit          2D

 48 51  0  0  0  0  0  0  0  0999 V2000
    2.8978    0.0000    0.0000 C   0  0  0  0  0  0  0  0  0  0  0  0
    2.5095   -1.4489    0.0000 C   0  0  0  0  0  0  0  0  0  0  0  0
    1.4489   -2.5095    0.0000 C   0  0  0  0  0  0  0  0  0  0  0  0
    2.1989   -3.8086    0.0000 O   0  0  0  0  0  0  0  0  0  0  0  0
   -0.0000   -2.8978    0.0000 O   0  0  0  0  0  0  0  0  0  0  0  0
   -1.4489   -2.5095    0.0000 C   0  0  0  0  0  0  0  0  0  0  0  0
   -2.5095   -1.4489    0.0000 C   0  0  0  0  0  0  0  0  0  0  0  0
   -2.8978    0.0000    0.0000 C   0  0  0  0  0  0  0  0  0  0  0  0
   -4.3978    0.0000    0.0000 O   0  0  0  0  0  0  0  0  0  0  0  0
   -2.5095    1.4489    0.0000 O   0  0  0  0  0  0  0  0  0  0  0  0
   -1.4489    2.5095    0.0000 C   0  0  0  0  0  0  0  0  0  0  0  0
    0.0000    2.8978    0.0000 C   0  0  0  0  0  0  0  0  0  0  0  0
    1.4489    2.5095    0.0000 C   0  0  0  0  0  0  0  0  0  0  0  0
    2.1989    3.8086    0.0000 O   0  0  0  0  0  0  0  0  0  0  0  0
    2.5095    1.4489    0.0000 O   0  0  0  0  0  0  0  0  0  0  0  0
    0.0000    4.3978    0.0000 N   0  0  0  0  0  0  0  0  0  0  0  0
   -1.2990    5.1478    0.0000 C   0  0  0  0  0  0  0  0  0  0  0  0
   -2.5981    4.3978    0.0000 O   0  0  0  0  0  0  0  0  0  0  0  0
   -1.2990    6.6478    0.0000 C   0  0  0  0  0  0  0  0  0  0  0  0
   -2.5981    7.3978    0.0000 C   0  0  0  0  0  0  0  0  0  0  0  0
   -2.5981    8.8978    0.0000 C   0  0  0  0  0  0  0  0  0  0  0  0
   -1.2990    9.6478    0.0000 C   0  0  0  0  0  0  0  0  0  0  0  0
   -0.0000    8.8978    0.0000 C   0  0  0  0  0  0  0  0  0  0  0  0
   -0.0000    7.3978    0.0000 C   0  0  0  0  0  0  0  0  0  0  0  0
   -3.8971    9.6478    0.0000 O   0  0  0  0  0  0  0  0  0  0  0  0
   -3.8971    6.6478    0.0000 O   0  0  0  0  0  0  0  0  0  0  0  0
   -3.8086   -2.1989    0.0000 N   0  0  0  0  0  0  0  0  0  0  0  0
   -3.8086   -3.6989    0.0000 C   0  0  0  0  0  0  0  0  0  0  0  0
   -2.5095   -4.4489    0.0000 O   0  0  0  0  0  0  0  0  0  0  0  0
   -5.1076   -4.4489    0.0000 C   0  0  0  0  0  0  0  0  0  0  0  0
   -5.1076   -5.9489    0.0000 C   0  0  0  0  0  0  0  0  0  0  0  0
   -6.4067   -6.6989    0.0000 C   0  0  0  0  0  0  0  0  0  0  0  0
   -7.7057   -5.9489    0.0000 C   0  0  0  0  0  0  0  0  0  0  0  0
   -7.7057   -4.4489    0.0000 C   0  0  0  0  0  0  0  0  0  0  0  0
   -6.4067   -3.6989    0.0000 C   0  0  0  0  0  0  0  0  0  0  0  0
   -6.4067   -8.1989    0.0000 O   0  0  0  0  0  0  0  0  0  0  0  0
   -3.8086   -6.6989    0.0000 O   0  0  0  0  0  0  0  0  0  0  0  0
    3.8086   -2.1989    0.0000 N   0  0  0  0  0  0  0  0  0  0  0  0
    5.1076   -1.4489    0.0000 C   0  0  0  0  0  0  0  0  0  0  0  0
    5.1076    0.0511    0.0000 O   0  0  0  0  0  0  0  0  0  0  0  0
    6.4067   -2.1989    0.0000 C   0  0  0  0  0  0  0  0  0  0  0  0
    7.7057   -1.4489    0.0000 C   0  0  0  0  0  0  0  0  0  0  0  0
    9.0047   -2.1989    0.0000 C   0  0  0  0  0  0  0  0  0  0  0  0
    9.0047   -3.6989    0.0000 C   0  0  0  0  0  0  0  0  0  0  0  0
    7.7057   -4.4489    0.0000 C   0  0  0  0  0  0  0  0  0  0  0  0
    6.4067   -3.6989    0.0000 C   0  0  0  0  0  0  0  0  0  0  0  0
   10.3038   -1.4489    0.0000 O   0  0  0  0  0  0  0  0  0  0  0  0
    7.7057    0.0511    0.0000 O   0  0  0  0  0  0  0  0  0  0  0  0
  1  2  1  0
  2  3  1  0
  3  4  2  0
  3  5  1  0
  5  6  1  0
  6  7  1  0
  7  8  1  0
  8  9  2  0
  8 10  1  0
 10 11  1  0
 11 12  1  0
 12 13  1  0
 13 14  2  0
 13 15  1  0
 12 16  1  0
 16 17  1  0
 17 18  2  0
 17 19  1  0
 19 20  2  0
 20 21  1  0
 21 22  2  0
 22 23  1  0
 23 24  2  0
 21 25  1  0
 20 26  1  0
  7 27  1  0
 27 28  1  0
 28 29  2  0
 28 30  1  0
 30 31  2  0
 31 32  1  0
 32 33  2  0
 33 34  1  0
 34 35  2  0
 32 36  1  0
 31 37  1  0
  2 38  1  0
 38 39  1  0
 39 40  2  0
 39 41  1  0
 41 42  2  0
 42 43  1  0
 43 44  2  0
 44 45  1  0
 45 46  2  0
 43 47  1  0
 42 48  1  0
 15  1  1  0
 24 19  1  0
 35 30  1  0
 46 41  1  0
M  END
>  <name>  (691) 
N-[7,11-bis[(2,3-dihydroxybenzoyl)amino]-2,6,10-trioxo-1,5,9-trioxacyclododec-3-yl]-2,3-dihydroxybenzamide

>  <Outcome>  (691) 
2

>  <SMILES>  (691) 
O=C(NC1COC(=O)C(NC(=O)c2cccc(O)c2O)COC(=O)C(NC(=O)c2cccc(O)c2O)COC1=O)c1cccc(O)c1O

$$$$

     RDKit          2D

  4  3  0  0  0  0  0  0  0  0999 V2000
    1.3009    0.7972    0.0000 C   0  0  0  0  0  0  0  0  0  0  0  0
    0.8884    0.0827    0.0000 C   0  0  0  0  0  0  0  0  0  0  0  0
    1.3009   -0.6318    0.0000 C   0  0  0  0  0  0  0  0  0  0  0  0
    0.0634    0.0827    0.0000 N   0  0  0  0  0  0  0  0  0  0  0  0
  1  2  1  0
  2  3  1  0
  2  4  1  0
M  END
>  <name>  (692) 
propan-2-amine

>  <Outcome>  (692) 
1

>  <SMILES>  (692) 
CC(C)N

$$$$

     RDKit          2D

 17 16  0  0  0  0  0  0  0  0999 V2000
    7.9480    5.4144    0.0000 C   0  0  0  0  0  0  0  0  0  0  0  0
    8.6625    5.0019    0.0000 C   0  0  0  0  0  0  0  0  0  0  0  0
    9.3770    5.4144    0.0000 C   0  0  0  0  0  0  0  0  0  0  0  0
   10.0914    5.0019    0.0000 C   0  0  0  0  0  0  0  0  0  0  0  0
   10.8059    5.4144    0.0000 C   0  0  0  0  0  0  0  0  0  0  0  0
   11.5204    5.0019    0.0000 C   0  0  0  0  0  0  0  0  0  0  0  0
   12.2349    5.4144    0.0000 C   0  0  0  0  0  0  0  0  0  0  0  0
   12.9493    5.0019    0.0000 C   0  0  0  0  0  0  0  0  0  0  0  0
   13.6638    5.4144    0.0000 C   0  0  0  0  0  0  0  0  0  0  0  0
   14.3783    5.0019    0.0000 C   0  0  0  0  0  0  0  0  0  0  0  0
   15.0927    5.4144    0.0000 C   0  0  0  0  0  0  0  0  0  0  0  0
   15.8072    5.0019    0.0000 C   0  0  0  0  0  0  0  0  0  0  0  0
   16.5217    5.4144    0.0000 C   0  0  0  0  0  0  0  0  0  0  0  0
   17.2362    5.0019    0.0000 C   0  0  0  0  0  0  0  0  0  0  0  0
   17.9506    5.4144    0.0000 C   0  0  0  0  0  0  0  0  0  0  0  0
   18.6651    5.0019    0.0000 C   0  0  0  0  0  0  0  0  0  0  0  0
   19.3796    5.4144    0.0000 C   0  0  0  0  0  0  0  0  0  0  0  0
  1  2  1  0
  2  3  1  0
  3  4  1  0
  4  5  1  0
  5  6  1  0
  6  7  1  0
  7  8  1  0
  8  9  1  0
  9 10  1  0
 10 11  1  0
 11 12  1  0
 12 13  1  0
 13 14  1  0
 14 15  1  0
 15 16  1  0
 16 17  1  0
M  END
>  <name>  (693) 
heptadecane

>  <Outcome>  (693) 
0

>  <SMILES>  (693) 
CCCCCCCCCCCCCCCCC

$$$$

     RDKit          2D

 36 36  0  0  0  0  0  0  0  0999 V2000
   -3.0211  -11.7331    0.0000 C   0  0  0  0  0  0  0  0  0  0  0  0
   -2.2285  -11.9620    0.0000 C   0  0  0  0  0  0  0  0  0  0  0  0
   -1.6340  -11.3899    0.0000 C   0  0  0  0  0  0  0  0  0  0  0  0
   -0.8413  -11.6187    0.0000 C   0  0  0  0  0  0  0  0  0  0  0  0
   -0.2469  -11.0467    0.0000 C   0  0  0  0  0  0  0  0  0  0  0  0
    0.5458  -11.2755    0.0000 C   0  0  0  0  0  0  0  0  0  0  0  0
    1.1402  -10.7035    0.0000 C   0  0  0  0  0  0  0  0  0  0  0  0
    1.9329  -10.9323    0.0000 C   0  0  0  0  0  0  0  0  0  0  0  0
    2.5273  -10.3603    0.0000 C   0  0  0  0  0  0  0  0  0  0  0  0
    3.3200  -10.5891    0.0000 C   0  0  0  0  0  0  0  0  0  0  0  0
    3.9145  -10.0170    0.0000 C   0  0  0  0  0  0  0  0  0  0  0  0
    4.7071  -10.2459    0.0000 C   0  0  0  0  0  0  0  0  0  0  0  0
    4.9052  -11.0467    0.0000 O   0  0  0  0  0  0  0  0  0  0  0  0
    5.3016   -9.6738    0.0000 O   0  0  0  0  0  0  0  0  0  0  0  0
    6.0942   -9.9026    0.0000 C   0  0  0  0  0  0  0  0  0  0  0  0
    6.6887   -9.3306    0.0000 C   0  0  0  0  0  0  0  0  0  0  0  0
    7.4813   -9.5594    0.0000 O   0  0  0  0  0  0  0  0  0  0  0  0
    8.0758   -8.9874    0.0000 C   0  0  0  0  0  0  0  0  0  0  0  0
    8.8684   -9.2162    0.0000 C   0  0  0  0  0  0  0  0  0  0  0  0
    9.0666  -10.0170    0.0000 O   0  0  0  0  0  0  0  0  0  0  0  0
    8.4721  -10.5891    0.0000 C   0  0  0  0  0  0  0  0  0  0  0  0
    8.6703  -11.3899    0.0000 C   0  0  0  0  0  0  0  0  0  0  0  0
    8.0758  -11.9620    0.0000 O   0  0  0  0  0  0  0  0  0  0  0  0
    9.4629   -8.6442    0.0000 C   0  0  0  0  0  0  0  0  0  0  0  0
    9.3495   -7.8270    0.0000 O   0  0  0  0  0  0  0  0  0  0  0  0
   10.0917   -7.4666    0.0000 C   0  0  0  0  0  0  0  0  0  0  0  0
   10.6637   -8.0611    0.0000 C   0  0  0  0  0  0  0  0  0  0  0  0
   11.4809   -7.9478    0.0000 O   0  0  0  0  0  0  0  0  0  0  0  0
   11.7913   -7.1834    0.0000 C   0  0  0  0  0  0  0  0  0  0  0  0
   12.6085   -7.0700    0.0000 C   0  0  0  0  0  0  0  0  0  0  0  0
   12.9189   -6.3056    0.0000 O   0  0  0  0  0  0  0  0  0  0  0  0
   10.2751   -8.7889    0.0000 C   0  0  0  0  0  0  0  0  0  0  0  0
   10.6354   -9.5310    0.0000 O   0  0  0  0  0  0  0  0  0  0  0  0
   10.1729  -10.2141    0.0000 C   0  0  0  0  0  0  0  0  0  0  0  0
   10.5332  -10.9563    0.0000 C   0  0  0  0  0  0  0  0  0  0  0  0
   10.0707  -11.6394    0.0000 O   0  0  0  0  0  0  0  0  0  0  0  0
  1  2  1  0
  2  3  1  0
  3  4  1  0
  4  5  1  0
  5  6  1  0
  6  7  1  0
  7  8  1  0
  8  9  1  0
  9 10  1  0
 10 11  1  0
 11 12  1  0
 12 13  2  0
 12 14  1  0
 14 15  1  0
 15 16  1  0
 16 17  1  0
 17 18  1  0
 18 19  1  0
 19 20  1  0
 20 21  1  0
 21 22  1  0
 22 23  1  0
 19 24  1  0
 24 25  1  0
 25 26  1  0
 26 27  1  0
 27 28  1  0
 28 29  1  0
 29 30  1  0
 30 31  1  0
 27 32  1  0
 24 32  1  0
 32 33  1  0
 33 34  1  0
 34 35  1  0
 35 36  1  0
M  END
>  <name>  (694) 
Sorbitan monolaurate, ethoxylated

>  <Outcome>  (694) 
0

>  <SMILES>  (694) 
CCCCCCCCCCCC(=O)OCCOCC(OCCO)C1OCC(OCCO)C1OCCO

$$$$

     RDKit          2D

  6  5  0  0  0  0  0  0  0  0999 V2000
    0.0000    0.0000    0.0000 C   0  0  0  0  0  0  0  0  0  0  0  0
    1.2990    0.7500    0.0000 C   0  0  0  0  0  0  0  0  0  0  0  0
    2.5981   -0.0000    0.0000 C   0  0  0  0  0  0  0  0  0  0  0  0
    1.8481   -1.2990    0.0000 C   0  0  0  0  0  0  0  0  0  0  0  0
    3.3481    1.2990    0.0000 C   0  0  0  0  0  0  0  0  0  0  0  0
    3.8971   -0.7500    0.0000 O   0  0  0  0  0  0  0  0  0  0  0  0
  1  2  1  0
  2  3  1  0
  3  4  1  0
  3  5  1  0
  3  6  1  0
M  END
>  <name>  (695) 
2-methylbutan-2-ol

>  <Outcome>  (695) 
2

>  <SMILES>  (695) 
CCC(C)(C)O

$$$$

     RDKit          2D

 12 11  0  0  0  0  0  0  0  0999 V2000
    1.5000    0.0000    0.0000 C   0  0  0  0  0  0  0  0  0  0  0  0
    0.7500   -1.2990    0.0000 N   0  0  0  0  0  0  0  0  0  0  0  0
   -0.7500   -1.2990    0.0000 C   0  0  0  0  0  0  0  0  0  0  0  0
   -1.5000   -2.5981    0.0000 O   0  0  0  0  0  0  0  0  0  0  0  0
   -1.5000    0.0000    0.0000 N   0  0  0  0  0  0  0  0  0  0  0  0
   -0.7500    1.2990    0.0000 C   0  0  0  0  0  0  0  0  0  0  0  0
   -1.5000    2.5981    0.0000 O   0  0  0  0  0  0  0  0  0  0  0  0
    0.7500    1.2990    0.0000 N   0  0  0  0  0  0  0  0  0  0  0  0
    1.5000    2.5981    0.0000 Cl  0  0  0  0  0  0  0  0  0  0  0  0
   -3.0000    0.0000    0.0000 Cl  0  0  0  0  0  0  0  0  0  0  0  0
    3.0000    0.0000    0.0000 O   0  0  0  0  0  1  0  0  0  0  0  0
    0.0000    3.5981    0.0000 K   0  0  0  0  0 15  0  0  0  0  0  0
  1  2  2  0
  2  3  1  0
  3  4  2  0
  3  5  1  0
  5  6  1  0
  6  7  2  0
  6  8  1  0
  8  9  1  0
  5 10  1  0
  1 11  1  0
  8  1  1  0
M  CHG  2  11  -1  12   1
M  END
>  <name>  (696) 
potassium;1,5-dichloro-4,6-dioxo-1,3,5-triazin-2-olate

>  <Outcome>  (696) 
2

>  <SMILES>  (696) 
O=c1nc([O-])n(Cl)c(=O)n1Cl.[K+]

$$$$

     RDKit          2D

 13 12  0  0  0  0  0  0  0  0999 V2000
    3.0000    0.0000    0.0000 C   0  0  0  0  0  0  0  0  0  0  0  0
    1.5000    0.0000    0.0000 C   0  0  0  0  0  0  0  0  0  0  0  0
    0.7500   -1.2990    0.0000 C   0  0  0  0  0  0  0  0  0  0  0  0
   -0.7500   -1.2990    0.0000 C   0  0  0  0  0  0  0  0  0  0  0  0
   -1.5000    0.0000    0.0000 C   0  0  0  0  0  0  0  0  0  0  0  0
   -0.7500    1.2990    0.0000 C   0  0  0  0  0  0  0  0  0  0  0  0
    0.7500    1.2990    0.0000 C   0  0  0  0  0  0  0  0  0  0  0  0
   -3.0000    0.0000    0.0000 S   0  0  0  0  0  0  0  0  0  0  0  0
   -3.0000    1.5000    0.0000 O   0  0  0  0  0  0  0  0  0  0  0  0
   -3.0000   -1.5000    0.0000 O   0  0  0  0  0  0  0  0  0  0  0  0
   -4.5000    0.0000    0.0000 N   0  0  0  0  0  2  0  0  0  0  0  0
   -5.2500   -1.2990    0.0000 Cl  0  0  0  0  0  0  0  0  0  0  0  0
    0.0000    2.5000    0.0000 Na  0  0  0  0  0 15  0  0  0  0  0  0
  1  2  1  0
  2  3  2  0
  3  4  1  0
  4  5  2  0
  5  6  1  0
  6  7  2  0
  5  8  1  0
  8  9  2  0
  8 10  2  0
  8 11  1  0
 11 12  1  0
  7  2  1  0
M  CHG  2  11  -1  13   1
M  END
>  <name>  (697) 
sodium;chloro-(4-methylphenyl)sulfonylazanide

>  <Outcome>  (697) 
2

>  <SMILES>  (697) 
Cc1ccc(S(=O)(=O)[N-]Cl)cc1.[Na+]

$$$$

     RDKit          2D

  7  5  0  0  0  0  0  0  0  0999 V2000
    0.0000    0.0000    0.0000 C   0  0  0  0  0  0  0  0  0  0  0  0
    1.2990    0.7500    0.0000 C   0  0  0  0  0  0  0  0  0  0  0  0
    2.5981   -0.0000    0.0000 O   0  0  0  0  0  0  0  0  0  0  0  0
    3.8971    0.7500    0.0000 C   0  0  0  0  0  0  0  0  0  0  0  0
    3.8971    2.2500    0.0000 S   0  0  0  0  0  0  0  0  0  0  0  0
    5.1962   -0.0000    0.0000 S   0  0  0  0  0  1  0  0  0  0  0  0
    0.0000    3.2500    0.0000 Na  0  0  0  0  0 15  0  0  0  0  0  0
  1  2  1  0
  2  3  1  0
  3  4  1  0
  4  5  2  0
  4  6  1  0
M  CHG  2   6  -1   7   1
M  END
>  <name>  (698) 
sodium;ethoxymethanedithioate

>  <Outcome>  (698) 
2

>  <SMILES>  (698) 
CCOC(=S)[S-].[Na+]

$$$$

     RDKit          2D

 20 21  0  0  0  0  0  0  0  0999 V2000
    0.7145   -0.4125    0.0000 C   0  0  0  0  0  0  0  0  0  0  0  0
    0.7145   -1.2375    0.0000 C   0  0  0  0  0  0  0  0  0  0  0  0
    1.4290   -1.6500    0.0000 C   0  0  0  0  0  0  0  0  0  0  0  0
    1.4290   -2.4750    0.0000 C   0  0  0  0  0  0  0  0  0  0  0  0
    2.1434   -2.8875    0.0000 C   0  0  0  0  0  0  0  0  0  0  0  0
    2.8579   -2.4750    0.0000 C   0  0  0  0  0  0  0  0  0  0  0  0
    3.5724   -2.8875    0.0000 C   0  0  0  0  0  0  0  0  0  0  0  0
    3.5724   -3.7125    0.0000 C   0  0  0  0  0  0  0  0  0  0  0  0
    4.2868   -4.1250    0.0000 N   0  0  0  0  0  0  0  0  0  0  0  0
    5.0013   -3.7125    0.0000 C   0  0  0  0  0  0  0  0  0  0  0  0
    5.7158   -3.3000    0.0000 O   0  0  0  0  0  0  0  0  0  0  0  0
    2.8579   -4.1250    0.0000 C   0  0  0  0  0  0  0  0  0  0  0  0
    2.8579   -4.9500    0.0000 C   0  0  0  0  0  0  0  0  0  0  0  0
    2.1434   -3.7125    0.0000 C   0  0  0  0  0  0  0  0  0  0  0  0
    0.7145   -2.8875    0.0000 C   0  0  0  0  0  0  0  0  0  0  0  0
    0.0000   -2.4750    0.0000 C   0  0  0  0  0  0  0  0  0  0  0  0
    0.0000   -1.6500    0.0000 C   0  0  0  0  0  0  0  0  0  0  0  0
   -0.7145   -1.2375    0.0000 N   0  0  0  0  0  0  0  0  0  0  0  0
   -1.4289   -1.6500    0.0000 C   0  0  0  0  0  0  0  0  0  0  0  0
   -2.1434   -2.0625    0.0000 O   0  0  0  0  0  0  0  0  0  0  0  0
  1  2  1  0
  2  3  2  0
  3  4  1  0
  4  5  1  0
  5  6  2  0
  6  7  1  0
  7  8  2  0
  8  9  1  0
  9 10  2  0
 10 11  2  0
  8 12  1  0
 12 13  1  0
 12 14  2  0
  5 14  1  0
  4 15  2  0
 15 16  1  0
 16 17  2  0
  2 17  1  0
 17 18  1  0
 18 19  2  0
 19 20  2  0
M  END
>  <name>  (699) 
1-isocyanato-4-(4-isocyanato-3-methylphenyl)-2-methylbenzene

>  <Outcome>  (699) 
1

>  <SMILES>  (699) 
Cc1cc(-c2ccc(N=C=O)c(C)c2)ccc1N=C=O

$$$$

     RDKit          2D

  9  8  0  0  0  0  0  0  0  0999 V2000
    2.9980    2.5585    0.0000 C   0  0  0  0  0  0  0  0  0  0  0  0
    3.7125    2.1460    0.0000 C   0  0  0  0  0  0  0  0  0  0  0  0
    4.4270    2.5585    0.0000 C   0  0  0  0  0  0  0  0  0  0  0  0
    5.1414    2.1460    0.0000 C   0  0  0  0  0  0  0  0  0  0  0  0
    5.8559    2.5585    0.0000 N   0  0  0  0  0  0  0  0  0  0  0  0
    6.5704    2.1460    0.0000 C   0  0  0  0  0  0  0  0  0  0  0  0
    7.2849    2.5585    0.0000 C   0  0  0  0  0  0  0  0  0  0  0  0
    7.9993    2.1460    0.0000 C   0  0  0  0  0  0  0  0  0  0  0  0
    8.7138    2.5585    0.0000 C   0  0  0  0  0  0  0  0  0  0  0  0
  1  2  1  0
  2  3  1  0
  3  4  1  0
  4  5  1  0
  5  6  1  0
  6  7  1  0
  7  8  1  0
  8  9  1  0
M  END
>  <name>  (700) 
N-butylbutan-1-amine

>  <Outcome>  (700) 
1

>  <SMILES>  (700) 
CCCCNCCCC

$$$$

     RDKit          2D

  7  6  0  0  0  0  0  0  0  0999 V2000
    2.9430   -0.7423    0.0000 C   0  0  0  0  0  0  0  0  0  0  0  0
    2.5305   -0.0279    0.0000 C   0  0  0  0  0  0  0  0  0  0  0  0
    1.7055   -0.0279    0.0000 N   0  0  0  0  0  0  0  0  0  0  0  0
    1.2930    0.6866    0.0000 C   0  0  0  0  0  0  0  0  0  0  0  0
    0.4680    0.6866    0.0000 C   0  0  0  0  0  0  0  0  0  0  0  0
    1.2930   -0.7423    0.0000 C   0  0  0  0  0  0  0  0  0  0  0  0
    0.4680   -0.7423    0.0000 C   0  0  0  0  0  0  0  0  0  0  0  0
  1  2  1  0
  2  3  1  0
  3  4  1  0
  4  5  1  0
  3  6  1  0
  6  7  1  0
M  END
>  <name>  (701) 
Triethylamine

>  <Outcome>  (701) 
1

>  <SMILES>  (701) 
CCN(CC)CC

$$$$

     RDKit          2D

 16 15  0  0  0  0  0  0  0  0999 V2000
    5.1769   -1.0642    0.0000 C   0  0  0  0  0  0  0  0  0  0  0  0
    4.3519   -1.0642    0.0000 C   0  0  0  0  0  0  0  0  0  0  0  0
    3.9394   -1.7787    0.0000 C   0  0  0  0  0  0  0  0  0  0  0  0
    3.9394   -0.3498    0.0000 C   0  0  0  0  0  0  0  0  0  0  0  0
    3.1144   -0.3498    0.0000 C   0  0  0  0  0  0  0  0  0  0  0  0
    3.1144    0.4752    0.0000 C   0  0  0  0  0  0  0  0  0  0  0  0
    3.1144   -1.1748    0.0000 O   0  0  0  0  0  0  0  0  0  0  0  0
    2.2894   -0.3498    0.0000 C   0  0  0  0  0  0  0  0  0  0  0  0
    1.4644   -0.3498    0.0000 C   0  0  0  0  0  0  0  0  0  0  0  0
    0.6394   -0.3498    0.0000 C   0  0  0  0  0  0  0  0  0  0  0  0
    0.6394    0.4752    0.0000 C   0  0  0  0  0  0  0  0  0  0  0  0
    0.6394   -1.1748    0.0000 O   0  0  0  0  0  0  0  0  0  0  0  0
   -0.1856   -0.3498    0.0000 C   0  0  0  0  0  0  0  0  0  0  0  0
   -0.5981    0.3647    0.0000 C   0  0  0  0  0  0  0  0  0  0  0  0
   -1.4231    0.3647    0.0000 C   0  0  0  0  0  0  0  0  0  0  0  0
   -0.1856    1.0792    0.0000 C   0  0  0  0  0  0  0  0  0  0  0  0
  1  2  1  0
  2  3  1  0
  2  4  1  0
  4  5  1  0
  5  6  1  0
  5  7  1  0
  5  8  1  0
  8  9  3  0
  9 10  1  0
 10 11  1  0
 10 12  1  0
 10 13  1  0
 13 14  1  0
 14 15  1  0
 14 16  1  0
M  END
>  <name>  (702) 
2,4,7,9-Tetramethyl-5-decyne-4,7-diol

>  <Outcome>  (702) 
0

>  <SMILES>  (702) 
CC(C)CC(C)(O)C#CC(C)(O)CC(C)C

$$$$

     RDKit          2D

 12 12  0  0  0  0  0  0  0  0999 V2000
    0.0937    3.5476    0.0000 C   0  0  0  0  0  0  0  0  0  0  0  0
    0.8082    3.1351    0.0000 C   0  0  0  0  0  0  0  0  0  0  0  0
    0.8082    2.3101    0.0000 C   0  0  0  0  0  0  0  0  0  0  0  0
   -0.0168    2.3101    0.0000 C   0  0  0  0  0  0  0  0  0  0  0  0
    1.6332    2.3101    0.0000 C   0  0  0  0  0  0  0  0  0  0  0  0
    0.8082    1.4851    0.0000 C   0  0  0  0  0  0  0  0  0  0  0  0
    1.5227    1.0726    0.0000 C   0  0  0  0  0  0  0  0  0  0  0  0
    1.5227    0.2476    0.0000 C   0  0  0  0  0  0  0  0  0  0  0  0
    0.8082   -0.1649    0.0000 C   0  0  0  0  0  0  0  0  0  0  0  0
    0.8082   -0.9899    0.0000 O   0  0  0  0  0  0  0  0  0  0  0  0
    0.0937    0.2476    0.0000 C   0  0  0  0  0  0  0  0  0  0  0  0
    0.0937    1.0726    0.0000 C   0  0  0  0  0  0  0  0  0  0  0  0
  1  2  1  0
  2  3  1  0
  3  4  1  0
  3  5  1  0
  3  6  1  0
  6  7  2  0
  7  8  1  0
  8  9  2  0
  9 10  1  0
  9 11  1  0
 11 12  2  0
  6 12  1  0
M  END
>  <name>  (703) 
4-(2-methylbutan-2-yl)phenol

>  <Outcome>  (703) 
0

>  <SMILES>  (703) 
CCC(C)(C)c1ccc(O)cc1

$$$$

     RDKit          2D

 12 11  0  0  0  0  0  0  0  0999 V2000
    0.0000    0.0000    0.0000 C   0  0  0  0  0  0  0  0  0  0  0  0
    1.2990    0.7500    0.0000 C   0  0  0  0  0  0  0  0  0  0  0  0
    2.5981   -0.0000    0.0000 O   0  0  0  0  0  0  0  0  0  0  0  0
    3.8971    0.7500    0.0000 C   0  0  0  0  0  0  0  0  0  0  0  0
    3.8971    2.2500    0.0000 O   0  0  0  0  0  0  0  0  0  0  0  0
    5.1962   -0.0000    0.0000 C   0  0  0  0  0  0  0  0  0  0  0  0
    6.4952    0.7500    0.0000 C   0  0  0  0  0  0  0  0  0  0  0  0
    7.7942   -0.0000    0.0000 C   0  0  0  0  0  0  0  0  0  0  0  0
    7.7942   -1.5000    0.0000 O   0  0  0  0  0  0  0  0  0  0  0  0
    9.0933    0.7500    0.0000 O   0  0  0  0  0  0  0  0  0  0  0  0
   10.3923   -0.0000    0.0000 C   0  0  0  0  0  0  0  0  0  0  0  0
   11.6913    0.7500    0.0000 C   0  0  0  0  0  0  0  0  0  0  0  0
  1  2  1  0
  2  3  1  0
  3  4  1  0
  4  5  2  0
  4  6  1  0
  6  7  2  3
  7  8  1  0
  8  9  2  0
  8 10  1  0
 10 11  1  0
 11 12  1  0
M  END
>  <name>  (704) 
diethyl (E)-but-2-enedioate

>  <Outcome>  (704) 
2

>  <SMILES>  (704) 
CCOC(=O)C=CC(=O)OCC

$$$$

     RDKit          2D

 22 23  0  0  0  0  0  0  0  0999 V2000
   -0.4043   -0.2267    0.0000 C   0  0  0  0  0  0  0  0  0  0  0  0
   -1.1187   -0.6392    0.0000 C   0  0  0  0  0  0  0  0  0  0  0  0
   -1.8332   -0.2267    0.0000 C   0  0  0  0  0  0  0  0  0  0  0  0
   -1.1187   -1.4642    0.0000 C   0  0  0  0  0  0  0  0  0  0  0  0
   -0.4043   -1.8767    0.0000 C   0  0  0  0  0  0  0  0  0  0  0  0
    0.3102   -1.4642    0.0000 C   0  0  0  0  0  0  0  0  0  0  0  0
    1.0247   -1.8767    0.0000 C   0  0  0  0  0  0  0  0  0  0  0  0
    1.7392   -1.4642    0.0000 C   0  0  0  0  0  0  0  0  0  0  0  0
    2.4536   -1.8767    0.0000 C   0  0  0  0  0  0  0  0  0  0  0  0
    2.4536   -2.7017    0.0000 C   0  0  0  0  0  0  0  0  0  0  0  0
    1.7392   -3.1142    0.0000 C   0  0  0  0  0  0  0  0  0  0  0  0
    1.0247   -2.7017    0.0000 C   0  0  0  0  0  0  0  0  0  0  0  0
    0.3102   -3.1142    0.0000 C   0  0  0  0  0  0  0  0  0  0  0  0
   -0.4043   -2.7017    0.0000 C   0  0  0  0  0  0  0  0  0  0  0  0
   -1.1187   -3.1142    0.0000 C   0  0  0  0  0  0  0  0  0  0  0  0
   -1.8332   -2.7017    0.0000 C   0  0  0  0  0  0  0  0  0  0  0  0
   -2.5477   -3.1142    0.0000 C   0  0  0  0  0  0  0  0  0  0  0  0
   -1.8332   -1.8767    0.0000 C   0  0  0  0  0  0  0  0  0  0  0  0
    0.3102   -3.9392    0.0000 S   0  0  0  0  0  0  0  0  0  0  0  0
   -0.5148   -3.9392    0.0000 O   0  0  0  0  0  0  0  0  0  0  0  0
    1.1352   -3.9392    0.0000 O   0  0  0  0  0  0  0  0  0  0  0  0
    0.3102   -4.7642    0.0000 O   0  0  0  0  0  0  0  0  0  0  0  0
  1  2  1  0
  2  3  1  0
  2  4  1  0
  4  5  1  0
  6  5  2  0
  7  6  1  0
  7  8  2  0
  8  9  1  0
  9 10  2  0
 10 11  1  0
 11 12  2  0
 13 12  1  0
 14 13  2  0
 14 15  1  0
 15 16  1  0
 16 17  1  0
 16 18  1  0
 13 19  1  0
 19 20  1  0
 19 21  2  0
 19 22  2  0
  5 14  1  0
 12  7  1  0
M  END
>  <name>  (705) 
Diisobutylnaphthalenesulfonic acid sodium salt

>  <Outcome>  (705) 
1

>  <SMILES>  (705) 
CC(C)Cc1cc2ccccc2c(S(=O)(=O)O)c1CC(C)C

$$$$

     RDKit          2D

  8  7  0  0  0  0  0  0  0  0999 V2000
    0.1262   -2.1053    0.0000 C   0  0  0  0  0  0  0  0  0  0  0  0
    0.1262   -1.2803    0.0000 C   0  0  0  0  0  0  0  0  0  0  0  0
   -0.5883   -0.8678    0.0000 C   0  0  0  0  0  0  0  0  0  0  0  0
    0.8407   -0.8678    0.0000 C   0  0  0  0  0  0  0  0  0  0  0  0
    0.8407   -0.0428    0.0000 C   0  0  0  0  0  0  0  0  0  0  0  0
    0.8407    0.7822    0.0000 C   0  0  0  0  0  0  0  0  0  0  0  0
    1.6657   -0.0428    0.0000 C   0  0  0  0  0  0  0  0  0  0  0  0
    0.0157   -0.0428    0.0000 C   0  0  0  0  0  0  0  0  0  0  0  0
  1  2  1  0
  2  3  1  0
  2  4  1  0
  4  5  1  0
  5  6  1  0
  5  7  1  0
  5  8  1  0
M  END
>  <name>  (706) 
2,2,4-trimethylpentane

>  <Outcome>  (706) 
0

>  <SMILES>  (706) 
CC(C)CC(C)(C)C

$$$$

     RDKit          2D

  8  8  0  0  0  0  0  0  0  0999 V2000
    2.7760    0.0000    0.0000 C   0  0  0  0  0  0  0  0  0  0  0  0
    1.2760    0.0000    0.0000 C   0  0  0  0  0  0  0  0  0  0  0  0
    0.3943    1.2135    0.0000 C   0  0  0  0  0  0  0  0  0  0  0  0
   -1.0323    0.7500    0.0000 C   0  0  0  0  0  0  0  0  0  0  0  0
   -2.2458    1.6317    0.0000 O   0  0  0  0  0  0  0  0  0  0  0  0
   -1.0323   -0.7500    0.0000 O   0  0  0  0  0  0  0  0  0  0  0  0
    0.3943   -1.2135    0.0000 C   0  0  0  0  0  0  0  0  0  0  0  0
    0.8578   -2.6401    0.0000 O   0  0  0  0  0  0  0  0  0  0  0  0
  1  2  1  0
  2  3  2  0
  3  4  1  0
  4  5  2  0
  4  6  1  0
  6  7  1  0
  7  8  2  0
  7  2  1  0
M  END
>  <name>  (707) 
3-methylfuran-2,5-dione

>  <Outcome>  (707) 
2

>  <SMILES>  (707) 
CC1=CC(=O)OC1=O

$$$$

     RDKit          2D

 13 12  0  0  0  0  0  0  0  0999 V2000
    0.1837    0.0211    0.0000 C   0  0  0  0  0  0  0  0  0  0  0  0
    0.8982    0.4336    0.0000 C   0  0  0  0  0  0  0  0  0  0  0  0
    1.6126    0.0211    0.0000 C   0  0  0  0  0  0  0  0  0  0  0  0
    2.3271    0.4336    0.0000 C   0  0  0  0  0  0  0  0  0  0  0  0
    3.0416    0.0211    0.0000 C   0  0  0  0  0  0  0  0  0  0  0  0
    3.7561    0.4336    0.0000 C   0  0  0  0  0  0  0  0  0  0  0  0
    3.7561    1.2586    0.0000 C   0  0  0  0  0  0  0  0  0  0  0  0
    3.0416    1.6711    0.0000 C   0  0  0  0  0  0  0  0  0  0  0  0
    3.0416    2.4961    0.0000 C   0  0  0  0  0  0  0  0  0  0  0  0
    4.4705    0.0211    0.0000 C   0  0  0  0  0  0  0  0  0  0  0  0
    5.1850    0.4336    0.0000 C   0  0  0  0  0  0  0  0  0  0  0  0
    5.8995    0.0211    0.0000 C   0  0  0  0  0  0  0  0  0  0  0  0
    6.6139    0.4336    0.0000 O   0  0  0  0  0  0  0  0  0  0  0  0
  1  2  1  0
  2  3  1  0
  3  4  1  0
  4  5  1  0
  5  6  1  0
  6  7  1  0
  7  8  1  0
  8  9  1  0
  6 10  1  0
 10 11  1  0
 11 12  1  0
 12 13  1  0
M  END
>  <name>  (708) 
Alcohols, C12-15-branched and linear

>  <Outcome>  (708) 
0

>  <SMILES>  (708) 
CCCCCC(CCC)CCCO

$$$$

     RDKit          2D

  6  5  0  0  0  0  0  0  0  0999 V2000
    1.1797    1.1797    0.0000 C   0  0  0  0  0  0  0  0  0  0  0  0
    0.7672    0.4652    0.0000 C   0  0  0  0  0  0  0  0  0  0  0  0
    1.1797   -0.2493    0.0000 C   0  0  0  0  0  0  0  0  0  0  0  0
    0.7672   -0.9637    0.0000 N   0  0  0  0  0  0  0  0  0  0  0  0
    1.1797   -1.6782    0.0000 O   0  0  0  0  0  0  0  0  0  0  0  0
   -0.0578   -0.9637    0.0000 O   0  0  0  0  0  0  0  0  0  0  0  0
  1  2  1  0
  2  3  1  0
  3  4  1  0
  4  5  1  0
  4  6  2  0
M  CHG  2   4   1   5  -1
M  END
>  <name>  (709) 
1-Nitropropane

>  <Outcome>  (709) 
1

>  <SMILES>  (709) 
CCC[N+](=O)[O-]

$$$$

     RDKit          2D

 10 10  0  0  0  0  0  0  0  0999 V2000
    3.2734    0.5960    0.0000 O   0  0  0  0  0  0  0  0  0  0  0  0
    2.5590    1.0085    0.0000 C   0  0  0  0  0  0  0  0  0  0  0  0
    1.8445    0.5960    0.0000 C   0  0  0  0  0  0  0  0  0  0  0  0
    1.1300    1.0085    0.0000 C   0  0  0  0  0  0  0  0  0  0  0  0
    0.4156    0.5960    0.0000 C   0  0  0  0  0  0  0  0  0  0  0  0
   -0.2989    1.0085    0.0000 C   0  0  0  0  0  0  0  0  0  0  0  0
   -1.0134    0.5960    0.0000 C   0  0  0  0  0  0  0  0  0  0  0  0
   -1.0134   -0.2290    0.0000 C   0  0  0  0  0  0  0  0  0  0  0  0
   -0.2989   -0.6415    0.0000 C   0  0  0  0  0  0  0  0  0  0  0  0
    0.4156   -0.2290    0.0000 C   0  0  0  0  0  0  0  0  0  0  0  0
  1  2  1  0
  3  2  1  0
  3  4  2  3
  4  5  1  0
  6  5  2  0
  7  6  1  0
  8  7  2  0
  9  8  1  0
 10  9  2  0
  5 10  1  0
M  END
>  <name>  (710) 
3-Phenyl-2-propen-1-ol

>  <Outcome>  (710) 
0

>  <SMILES>  (710) 
OCC=Cc1ccccc1

$$$$

     RDKit          2D

 28 29  0  0  0  0  0  0  0  0999 V2000
   -0.6530   -1.2371    0.0000 C   0  0  0  0  0  0  0  0  0  0  0  0
   -0.6530   -2.0621    0.0000 C   0  0  0  0  0  0  0  0  0  0  0  0
   -1.3675   -2.4746    0.0000 O   0  0  0  0  0  0  0  0  0  0  0  0
   -1.3675   -3.2996    0.0000 C   0  0  0  0  0  0  0  0  0  0  0  0
   -0.6530   -3.7121    0.0000 N   0  0  0  0  0  0  0  0  0  0  0  0
   -0.6530   -4.5371    0.0000 C   0  0  0  0  0  0  0  0  0  0  0  0
    0.0614   -4.9496    0.0000 N   0  0  0  0  0  0  0  0  0  0  0  0
    0.0614   -5.7746    0.0000 C   0  0  0  0  0  0  0  0  0  0  0  0
   -1.3675   -4.9496    0.0000 N   0  0  0  0  0  0  0  0  0  0  0  0
   -2.0820   -4.5371    0.0000 C   0  0  0  0  0  0  0  0  0  0  0  0
   -2.7964   -4.9496    0.0000 N   0  0  0  0  0  0  0  0  0  0  0  0
   -2.7964   -5.7746    0.0000 C   0  0  0  0  0  0  0  0  0  0  0  0
   -2.0820   -6.1871    0.0000 O   0  0  0  0  0  0  0  0  0  0  0  0
   -3.5109   -6.1871    0.0000 N   0  0  0  0  0  0  0  0  0  0  0  0
   -3.5109   -7.0121    0.0000 S   0  0  0  0  0  0  0  0  0  0  0  0
   -4.3359   -7.0121    0.0000 O   0  0  0  0  0  0  0  0  0  0  0  0
   -2.6859   -7.0121    0.0000 O   0  0  0  0  0  0  0  0  0  0  0  0
   -3.5109   -7.8371    0.0000 C   0  0  0  0  0  0  0  0  0  0  0  0
   -2.7964   -8.2496    0.0000 C   0  0  0  0  0  0  0  0  0  0  0  0
   -2.7964   -9.0746    0.0000 C   0  0  0  0  0  0  0  0  0  0  0  0
   -3.5109   -9.4871    0.0000 C   0  0  0  0  0  0  0  0  0  0  0  0
   -4.2254   -9.0746    0.0000 C   0  0  0  0  0  0  0  0  0  0  0  0
   -4.2254   -8.2496    0.0000 C   0  0  0  0  0  0  0  0  0  0  0  0
   -4.9399   -7.8371    0.0000 C   0  0  0  0  0  0  0  0  0  0  0  0
   -4.9399   -7.0121    0.0000 O   0  0  0  0  0  0  0  0  0  0  0  0
   -5.6543   -8.2496    0.0000 O   0  0  0  0  0  0  0  0  0  0  0  0
   -5.6543   -9.0746    0.0000 C   0  0  0  0  0  0  0  0  0  0  0  0
   -2.0820   -3.7121    0.0000 N   0  0  0  0  0  0  0  0  0  0  0  0
  1  2  1  0
  2  3  1  0
  3  4  1  0
  4  5  2  0
  5  6  1  0
  6  7  1  0
  7  8  1  0
  6  9  2  0
  9 10  1  0
 10 11  1  0
 11 12  1  0
 12 13  2  0
 12 14  1  0
 14 15  1  0
 15 16  2  0
 15 17  2  0
 15 18  1  0
 18 19  2  0
 19 20  1  0
 20 21  2  0
 21 22  1  0
 22 23  2  0
 18 23  1  0
 23 24  1  0
 24 25  2  0
 24 26  1  0
 26 27  1  0
 10 28  2  0
  4 28  1  0
M  END
>  <name>  (711) 
unnamed [97780-06-8]

>  <Outcome>  (711) 
0

>  <SMILES>  (711) 
CCOc1nc(NC)nc(NC(=O)NS(=O)(=O)c2ccccc2C(=O)OC)n1

$$$$

     RDKit          2D

  8  8  0  0  0  0  0  0  0  0999 V2000
    1.3943    1.2766    0.0000 C   0  0  0  0  0  0  0  0  0  0  0  0
    2.1088    0.8641    0.0000 C   0  0  0  0  0  0  0  0  0  0  0  0
    2.8233    1.2766    0.0000 C   0  0  0  0  0  0  0  0  0  0  0  0
    3.5377    0.8641    0.0000 O   0  0  0  0  0  0  0  0  0  0  0  0
    4.2522    1.2766    0.0000 C   0  0  0  0  0  0  0  0  0  0  0  0
    4.9667    0.8641    0.0000 C   0  0  0  0  0  0  0  0  0  0  0  0
    5.7917    0.8641    0.0000 C   0  0  0  0  0  0  0  0  0  0  0  0
    5.3792    0.1497    0.0000 O   0  0  0  0  0  0  0  0  0  0  0  0
  1  2  2  0
  2  3  1  0
  3  4  1  0
  4  5  1  0
  5  6  1  0
  6  7  1  0
  7  8  1  0
  6  8  1  0
M  END
>  <name>  (712) 
2-[(prop-2-en-1-yloxy)methyl]oxirane

>  <Outcome>  (712) 
1

>  <SMILES>  (712) 
C=CCOCC1CO1

$$$$

     RDKit          2D

  7  6  0  0  0  0  0  0  0  0999 V2000
   -0.1914    0.7145    0.0000 C   0  0  0  0  0  0  0  0  0  0  0  0
    0.5230    1.1270    0.0000 C   0  0  0  0  0  0  0  0  0  0  0  0
    1.2375    0.7145    0.0000 C   0  0  0  0  0  0  0  0  0  0  0  0
    1.9520    1.1270    0.0000 O   0  0  0  0  0  0  0  0  0  0  0  0
    2.6664    0.7145    0.0000 C   0  0  0  0  0  0  0  0  0  0  0  0
    3.3809    1.1270    0.0000 C   0  0  0  0  0  0  0  0  0  0  0  0
    2.6664   -0.1105    0.0000 O   0  0  0  0  0  0  0  0  0  0  0  0
  1  2  1  0
  2  3  1  0
  3  4  1  0
  4  5  1  0
  5  6  1  0
  5  7  2  0
M  END
>  <name>  (713) 
propyl acetate

>  <Outcome>  (713) 
0

>  <SMILES>  (713) 
CCCOC(C)=O

$$$$

     RDKit          2D

  5  4  0  0  0  0  0  0  0  0999 V2000
    0.6712    1.0143    0.0000 C   0  0  0  0  0  0  0  0  0  0  0  0
    1.0837    0.2998    0.0000 C   0  0  0  0  0  0  0  0  0  0  0  0
    0.6712   -0.4146    0.0000 C   0  0  0  0  0  0  0  0  0  0  0  0
    1.0837   -1.1291    0.0000 O   0  0  0  0  0  0  0  0  0  0  0  0
   -0.1538   -0.4146    0.0000 O   0  0  0  0  0  0  0  0  0  0  0  0
  1  2  1  0
  2  3  1  0
  3  4  1  0
  3  5  2  0
M  END
>  <name>  (714) 
Propionic acid

>  <Outcome>  (714) 
0

>  <SMILES>  (714) 
CCC(=O)O

$$$$

     RDKit          2D

  2  1  0  0  0  0  0  0  0  0999 V2000
    0.8250    0.0000    0.0000 C   0  0  0  0  0  0  0  0  0  0  0  0
    0.0000   -0.0000    0.0000 W   0  0  0  0  0  3  0  0  0  0  0  0
  1  2  3  0
M  END
>  <name>  (715) 
tungsten(4+) ion methanetetraide

>  <Outcome>  (715) 
0

>  <SMILES>  (715) 
C#[W]

$$$$

     RDKit          2D

 14 13  0  0  0  0  0  0  0  0999 V2000
   -3.0342    0.6534    0.0000 C   0  0  0  0  0  0  0  0  0  0  0  0
   -2.3197    0.2409    0.0000 O   0  0  0  0  0  0  0  0  0  0  0  0
   -1.6052    0.6534    0.0000 Si  0  0  0  0  0  4  0  0  0  0  0  0
   -0.8908    1.0659    0.0000 C   0  0  0  0  0  0  0  0  0  0  0  0
   -0.1763    0.6534    0.0000 C   0  0  0  0  0  0  0  0  0  0  0  0
    0.5382    1.0659    0.0000 C   0  0  0  0  0  0  0  0  0  0  0  0
    1.2526    0.6534    0.0000 N   0  0  0  0  0  0  0  0  0  0  0  0
    1.9671    1.0659    0.0000 C   0  0  0  0  0  0  0  0  0  0  0  0
    2.6816    0.6534    0.0000 C   0  0  0  0  0  0  0  0  0  0  0  0
    3.3961    1.0659    0.0000 N   0  0  0  0  0  0  0  0  0  0  0  0
   -1.1927   -0.0611    0.0000 O   0  0  0  0  0  0  0  0  0  0  0  0
   -0.3677   -0.0611    0.0000 C   0  0  0  0  0  0  0  0  0  0  0  0
   -2.0177    1.3678    0.0000 O   0  0  0  0  0  0  0  0  0  0  0  0
   -1.6052    2.0823    0.0000 C   0  0  0  0  0  0  0  0  0  0  0  0
  1  2  1  0
  2  3  1  0
  3  4  1  0
  4  5  1  0
  5  6  1  0
  6  7  1  0
  7  8  1  0
  8  9  1  0
  9 10  1  0
  3 11  1  0
 11 12  1  0
  3 13  1  0
 13 14  1  0
M  END
>  <name>  (716) 
(2-aminoethyl)[3-(trimethoxysilyl)propyl]amine

>  <Outcome>  (716) 
1

>  <SMILES>  (716) 
CO[Si](CCCNCCN)(OC)OC

$$$$

     RDKit          2D

  5  4  0  0  0  0  0  0  0  0999 V2000
    0.8538   -0.7298    0.0000 C   0  0  0  0  0  0  0  0  0  0  0  0
    0.8538    0.0952    0.0000 C   0  0  0  0  0  0  0  0  0  0  0  0
    0.8538    0.9202    0.0000 C   0  0  0  0  0  0  0  0  0  0  0  0
    1.6788    0.0952    0.0000 C   0  0  0  0  0  0  0  0  0  0  0  0
    0.0288    0.0952    0.0000 S   0  0  0  0  0  0  0  0  0  0  0  0
  1  2  1  0
  2  3  1  0
  2  4  1  0
  2  5  1  0
M  END
>  <name>  (717) 
2-methylpropane-2-thiol

>  <Outcome>  (717) 
0

>  <SMILES>  (717) 
CC(C)(C)S

$$$$

     RDKit          2D

 10  9  0  0  0  0  0  0  0  0999 V2000
    1.3336   -4.7227    0.0000 C   0  0  0  0  0  0  0  0  0  0  0  0
    1.3336   -3.8977    0.0000 C   0  0  0  0  0  0  0  0  0  0  0  0
    0.6192   -3.4852    0.0000 C   0  0  0  0  0  0  0  0  0  0  0  0
    0.6192   -2.6602    0.0000 N   0  0  0  0  0  0  0  0  0  0  0  0
   -0.0953   -2.2477    0.0000 C   0  0  0  0  0  0  0  0  0  0  0  0
   -0.0953   -1.4227    0.0000 C   0  0  0  0  0  0  0  0  0  0  0  0
   -0.8098   -1.0102    0.0000 C   0  0  0  0  0  0  0  0  0  0  0  0
    1.3336   -2.2477    0.0000 C   0  0  0  0  0  0  0  0  0  0  0  0
    1.3336   -1.4227    0.0000 C   0  0  0  0  0  0  0  0  0  0  0  0
    2.0481   -1.0102    0.0000 C   0  0  0  0  0  0  0  0  0  0  0  0
  1  2  1  0
  2  3  1  0
  3  4  1  0
  4  5  1  0
  5  6  1  0
  6  7  1  0
  4  8  1  0
  8  9  1  0
  9 10  1  0
M  END
>  <name>  (718) 
N,N-dipropylpropan-1-amine

>  <Outcome>  (718) 
1

>  <SMILES>  (718) 
CCCN(CCC)CCC

$$$$

     RDKit          2D

  7  4  0  0  0  0  0  0  0  0999 V2000
    0.0000    0.0000    0.0000 O   0  0  0  0  0  1  0  0  0  0  0  0
    1.2990    0.7500    0.0000 Cr  0  0  0  0  0  6  0  0  0  0  0  0
    2.0490   -0.5490    0.0000 O   0  0  0  0  0  0  0  0  0  0  0  0
    0.5490    2.0490    0.0000 O   0  0  0  0  0  0  0  0  0  0  0  0
    2.5981    1.5000    0.0000 O   0  0  0  0  0  1  0  0  0  0  0  0
    3.5981    0.0000    0.0000 K   0  0  0  0  0 15  0  0  0  0  0  0
    0.0000    3.0490    0.0000 K   0  0  0  0  0 15  0  0  0  0  0  0
  1  2  1  0
  2  3  2  0
  2  4  2  0
  2  5  1  0
M  CHG  4   1  -1   5  -1   6   1   7   1
M  END
>  <name>  (719) 
dipotassium;dioxido(dioxo)chromium

>  <Outcome>  (719) 
2

>  <SMILES>  (719) 
O=[Cr](=O)([O-])[O-].[K+].[K+]

$$$$

     RDKit          2D

 20 21  0  0  0  0  0  0  0  0999 V2000
    0.7500   -3.8971    0.0000 C   0  0  0  0  0  0  0  0  0  0  0  0
    1.5000   -2.5981    0.0000 C   0  0  0  0  0  0  0  0  0  0  0  0
    0.7500   -1.2990    0.0000 C   0  0  0  0  0  0  0  0  0  0  0  0
    1.5000    0.0000    0.0000 C   0  0  0  0  0  0  0  0  0  0  0  0
    0.7500    1.2990    0.0000 C   0  0  0  0  0  0  0  0  0  0  0  0
   -0.7500    1.2990    0.0000 C   0  0  0  0  0  0  0  0  0  0  0  0
   -1.5000    0.0000    0.0000 C   0  0  0  0  0  0  0  0  0  0  0  0
   -0.7500   -1.2990    0.0000 C   0  0  0  0  0  0  0  0  0  0  0  0
   -1.5000    2.5981    0.0000 O   0  0  0  0  0  0  0  0  0  0  0  0
   -0.7500    3.8971    0.0000 C   0  0  0  0  0  0  0  0  0  0  0  0
   -0.0000    5.1962    0.0000 N   0  0  0  0  0  0  0  0  0  0  0  0
    3.0000   -2.5981    0.0000 C   0  0  0  0  0  0  0  0  0  0  0  0
    3.7500   -3.8971    0.0000 C   0  0  0  0  0  0  0  0  0  0  0  0
    5.2500   -3.8971    0.0000 C   0  0  0  0  0  0  0  0  0  0  0  0
    6.0000   -2.5981    0.0000 C   0  0  0  0  0  0  0  0  0  0  0  0
    5.2500   -1.2990    0.0000 C   0  0  0  0  0  0  0  0  0  0  0  0
    3.7500   -1.2990    0.0000 C   0  0  0  0  0  0  0  0  0  0  0  0
    7.5000   -2.5981    0.0000 O   0  0  0  0  0  0  0  0  0  0  0  0
    8.2500   -3.8971    0.0000 C   0  0  0  0  0  0  0  0  0  0  0  0
    9.0000   -5.1962    0.0000 N   0  0  0  0  0  0  0  0  0  0  0  0
  1  2  1  0
  2  3  1  0
  3  4  2  0
  4  5  1  0
  5  6  2  0
  6  7  1  0
  7  8  2  0
  6  9  1  0
  9 10  1  0
 10 11  3  0
  2 12  1  0
 12 13  2  0
 13 14  1  0
 14 15  2  0
 15 16  1  0
 16 17  2  0
 15 18  1  0
 18 19  1  0
 19 20  3  0
  8  3  1  0
 17 12  1  0
M  END
>  <name>  (720) 
[4-[1-(4-cyanatophenyl)ethyl]phenyl] cyanate

>  <Outcome>  (720) 
2

>  <SMILES>  (720) 
CC(c1ccc(OC#N)cc1)c1ccc(OC#N)cc1

$$$$

     RDKit          2D

  9  9  0  0  0  0  0  0  0  0999 V2000
    3.0000    0.0000    0.0000 C   0  0  0  0  0  0  0  0  0  0  0  0
    1.5000    0.0000    0.0000 C   0  0  0  0  0  0  0  0  0  0  0  0
    0.7500   -1.2990    0.0000 N   0  0  0  0  0  0  0  0  0  0  0  0
   -0.7500   -1.2990    0.0000 C   0  0  0  0  0  0  0  0  0  0  0  0
   -1.5000    0.0000    0.0000 N   0  0  0  0  0  0  0  0  0  0  0  0
   -0.7500    1.2990    0.0000 C   0  0  0  0  0  0  0  0  0  0  0  0
    0.7500    1.2990    0.0000 N   0  0  0  0  0  0  0  0  0  0  0  0
   -1.5000    2.5981    0.0000 N   0  0  0  0  0  0  0  0  0  0  0  0
   -1.5000   -2.5981    0.0000 N   0  0  0  0  0  0  0  0  0  0  0  0
  1  2  1  0
  2  3  2  0
  3  4  1  0
  4  5  2  0
  5  6  1  0
  6  7  2  0
  6  8  1  0
  4  9  1  0
  7  2  1  0
M  END
>  <name>  (721) 
6-methyl-1,3,5-triazine-2,4-diamine

>  <Outcome>  (721) 
2

>  <SMILES>  (721) 
Cc1nc(N)nc(N)n1

$$$$

     RDKit          2D

 22 23  0  0  0  0  0  0  0  0999 V2000
    3.7500   -1.2990    0.0000 C   0  0  0  0  0  0  0  0  0  0  0  0
    3.0000    0.0000    0.0000 N   0  0  0  0  0  0  0  0  0  0  0  0
    3.7500    1.2990    0.0000 C   0  0  0  0  0  0  0  0  0  0  0  0
    1.5000    0.0000    0.0000 C   0  0  0  0  0  0  0  0  0  0  0  0
    0.7500   -1.2990    0.0000 C   0  0  0  0  0  0  0  0  0  0  0  0
   -0.7500   -1.2990    0.0000 C   0  0  0  0  0  0  0  0  0  0  0  0
   -1.5000    0.0000    0.0000 C   0  0  0  0  0  0  0  0  0  0  0  0
   -0.7500    1.2990    0.0000 C   0  0  0  0  0  0  0  0  0  0  0  0
    0.7500    1.2990    0.0000 C   0  0  0  0  0  0  0  0  0  0  0  0
   -1.5000    2.5981    0.0000 C   0  0  0  0  0  0  0  0  0  0  0  0
   -3.0000    2.5981    0.0000 O   0  0  0  0  0  0  0  0  0  0  0  0
   -0.7500    3.8971    0.0000 N   0  0  0  0  0  0  0  0  0  0  0  0
   -1.5000    5.1962    0.0000 C   0  0  0  0  0  0  0  0  0  0  0  0
   -0.7500    6.4952    0.0000 C   0  0  0  0  0  0  0  0  0  0  0  0
   -1.5000    7.7942    0.0000 N   0  0  0  0  0  0  0  0  0  0  0  0
   -0.7500    9.0933    0.0000 C   0  0  0  0  0  0  0  0  0  0  0  0
   -3.0000    7.7942    0.0000 C   0  0  0  0  0  0  0  0  0  0  0  0
   -3.7500    9.0933    0.0000 C   0  0  0  0  0  0  0  0  0  0  0  0
   -5.2500    9.0933    0.0000 C   0  0  0  0  0  0  0  0  0  0  0  0
   -6.0000    7.7942    0.0000 C   0  0  0  0  0  0  0  0  0  0  0  0
   -5.2500    6.4952    0.0000 C   0  0  0  0  0  0  0  0  0  0  0  0
   -3.7500    6.4952    0.0000 C   0  0  0  0  0  0  0  0  0  0  0  0
  1  2  1  0
  2  3  1  0
  2  4  1  0
  4  5  2  0
  5  6  1  0
  6  7  2  0
  7  8  1  0
  8  9  2  0
  8 10  1  0
 10 11  2  0
 10 12  1  0
 12 13  1  0
 13 14  1  0
 14 15  1  0
 15 16  1  0
 15 17  1  0
 17 18  2  0
 18 19  1  0
 19 20  2  0
 20 21  1  0
 21 22  2  0
  9  4  1  0
 22 17  1  0
M  END
>  <name>  (722) 
3-(dimethylamino)-N-[2-(N-methylanilino)ethyl]benzamide

>  <Outcome>  (722) 
2

>  <SMILES>  (722) 
CN(C)c1cccc(C(=O)NCCN(C)c2ccccc2)c1

$$$$

     RDKit          2D

  6  5  0  0  0  0  0  0  0  0999 V2000
   -0.1914    0.7165    0.0000 C   0  0  0  0  0  0  0  0  0  0  0  0
    0.5230    1.1290    0.0000 C   0  0  0  0  0  0  0  0  0  0  0  0
    1.2375    0.7165    0.0000 C   0  0  0  0  0  0  0  0  0  0  0  0
    1.9520    1.1290    0.0000 C   0  0  0  0  0  0  0  0  0  0  0  0
    2.6664    0.7165    0.0000 C   0  0  0  0  0  0  0  0  0  0  0  0
    3.3809    1.1290    0.0000 C   0  0  0  0  0  0  0  0  0  0  0  0
  1  2  2  0
  2  3  1  0
  3  4  1  0
  4  5  1  0
  5  6  1  0
M  END
>  <name>  (723) 
hex-1-ene

>  <Outcome>  (723) 
0

>  <SMILES>  (723) 
C=CCCCC

$$$$

     RDKit          2D

  7  7  0  0  0  0  0  0  0  0999 V2000
   -0.1491    2.3504    0.0000 O   0  0  0  0  0  0  0  0  0  0  0  0
    0.5654    1.9379    0.0000 C   0  0  0  0  0  0  0  0  0  0  0  0
    0.5654    1.1129    0.0000 C   0  0  0  0  0  0  0  0  0  0  0  0
    1.2329    0.6280    0.0000 C   0  0  0  0  0  0  0  0  0  0  0  0
    0.9779   -0.1566    0.0000 C   0  0  0  0  0  0  0  0  0  0  0  0
    0.1529   -0.1566    0.0000 C   0  0  0  0  0  0  0  0  0  0  0  0
   -0.1020    0.6280    0.0000 O   0  0  0  0  0  0  0  0  0  0  0  0
  1  2  1  0
  2  3  1  0
  3  4  2  0
  4  5  1  0
  5  6  2  0
  6  7  1  0
  3  7  1  0
M  END
>  <name>  (724) 
furan-2-ylmethanol

>  <Outcome>  (724) 
1

>  <SMILES>  (724) 
OCc1ccco1

$$$$

     RDKit          2D

  5  4  0  0  0  0  0  0  0  0999 V2000
    0.8250   -0.8250    0.0000 C   0  0  0  0  0  0  0  0  0  0  0  0
    0.8250    0.0000    0.0000 S   0  0  0  0  0  0  0  0  0  0  0  0
    0.8250    0.8250    0.0000 O   0  0  0  0  0  0  0  0  0  0  0  0
    1.6500   -0.0000    0.0000 O   0  0  0  0  0  0  0  0  0  0  0  0
    0.0000    0.0000    0.0000 Cl  0  0  0  0  0  0  0  0  0  0  0  0
  1  2  1  0
  2  3  2  0
  2  4  2  0
  2  5  1  0
M  END
>  <name>  (725) 
methanesulfonyl chloride

>  <Outcome>  (725) 
1

>  <SMILES>  (725) 
CS(=O)(=O)Cl

$$$$

     RDKit          2D

 13 12  0  0  0  0  0  0  0  0999 V2000
    1.5000    0.0000    0.0000 C   0  0  0  0  0  0  0  0  0  0  0  0
    0.7500   -1.2990    0.0000 C   0  0  0  0  0  0  0  0  0  0  0  0
   -0.7500   -1.2990    0.0000 C   0  0  0  0  0  0  0  0  0  0  0  0
   -1.5000    0.0000    0.0000 C   0  0  0  0  0  0  0  0  0  0  0  0
   -0.7500    1.2990    0.0000 C   0  0  0  0  0  0  0  0  0  0  0  0
    0.7500    1.2990    0.0000 C   0  0  0  0  0  0  0  0  0  0  0  0
    1.5000    2.5981    0.0000 Cl  0  0  0  0  0  0  0  0  0  0  0  0
   -1.5000    2.5981    0.0000 Cl  0  0  0  0  0  0  0  0  0  0  0  0
   -3.0000    0.0000    0.0000 Cl  0  0  0  0  0  0  0  0  0  0  0  0
   -1.5000   -2.5981    0.0000 Cl  0  0  0  0  0  0  0  0  0  0  0  0
    1.5000   -2.5981    0.0000 Cl  0  0  0  0  0  0  0  0  0  0  0  0
    3.0000    0.0000    0.0000 O   0  0  0  0  0  1  0  0  0  0  0  0
    0.0000    3.5981    0.0000 Na  0  0  0  0  0 15  0  0  0  0  0  0
  1  2  2  0
  2  3  1  0
  3  4  2  0
  4  5  1  0
  5  6  2  0
  6  7  1  0
  5  8  1  0
  4  9  1  0
  3 10  1  0
  2 11  1  0
  1 12  1  0
  6  1  1  0
M  CHG  2  12  -1  13   1
M  END
>  <name>  (726) 
sodium;2,3,4,5,6-pentachlorophenolate

>  <Outcome>  (726) 
2

>  <SMILES>  (726) 
[Na+].[O-]c1c(Cl)c(Cl)c(Cl)c(Cl)c1Cl

$$$$

     RDKit          2D

  6  5  0  0  0  0  0  0  0  0999 V2000
    0.0000    0.0000    0.0000 C   0  0  0  0  0  0  0  0  0  0  0  0
    1.2990    0.7500    0.0000 C   0  0  0  0  0  0  0  0  0  0  0  0
    2.5981   -0.0000    0.0000 C   0  0  0  0  0  0  0  0  0  0  0  0
    1.2990    2.2500    0.0000 C   0  0  0  0  0  0  0  0  0  0  0  0
   -0.0000    3.0000    0.0000 O   0  0  0  0  0  0  0  0  0  0  0  0
    2.5981    3.0000    0.0000 C   0  0  0  0  0  0  0  0  0  0  0  0
  1  2  1  0
  2  3  1  0
  2  4  1  0
  4  5  2  0
  4  6  1  0
M  END
>  <name>  (727) 
3-methylbutan-2-one

>  <Outcome>  (727) 
2

>  <SMILES>  (727) 
CC(=O)C(C)C

$$$$

     RDKit          2D

  8  7  0  0  0  0  0  0  0  0999 V2000
    0.0000    0.0000    0.0000 C   0  0  0  0  0  0  0  0  0  0  0  0
    1.5000    0.0000    0.0000 C   0  0  0  0  0  0  0  0  0  0  0  0
    3.0000    0.0000    0.0000 Cl  0  0  0  0  0  0  0  0  0  0  0  0
    1.5000   -1.5000    0.0000 Cl  0  0  0  0  0  0  0  0  0  0  0  0
    1.5000    1.5000    0.0000 Cl  0  0  0  0  0  0  0  0  0  0  0  0
   -1.5000    0.0000    0.0000 Cl  0  0  0  0  0  0  0  0  0  0  0  0
    0.0000    1.5000    0.0000 Cl  0  0  0  0  0  0  0  0  0  0  0  0
   -0.0000   -1.5000    0.0000 Cl  0  0  0  0  0  0  0  0  0  0  0  0
  1  2  1  0
  2  3  1  0
  2  4  1  0
  2  5  1  0
  1  6  1  0
  1  7  1  0
  1  8  1  0
M  END
>  <name>  (728) 
1,1,1,2,2,2-hexachloroethane

>  <Outcome>  (728) 
2

>  <SMILES>  (728) 
ClC(Cl)(Cl)C(Cl)(Cl)Cl

$$$$

     RDKit          2D

 18 17  0  0  0  0  0  0  0  0999 V2000
    7.2336    5.0013    0.0000 C   0  0  0  0  0  0  0  0  0  0  0  0
    7.9480    5.4138    0.0000 C   0  0  0  0  0  0  0  0  0  0  0  0
    8.6625    5.0013    0.0000 C   0  0  0  0  0  0  0  0  0  0  0  0
    9.3770    5.4138    0.0000 C   0  0  0  0  0  0  0  0  0  0  0  0
   10.0914    5.0013    0.0000 C   0  0  0  0  0  0  0  0  0  0  0  0
   10.8059    5.4138    0.0000 C   0  0  0  0  0  0  0  0  0  0  0  0
   11.5204    5.0013    0.0000 C   0  0  0  0  0  0  0  0  0  0  0  0
   12.2349    5.4138    0.0000 C   0  0  0  0  0  0  0  0  0  0  0  0
   12.9493    5.0013    0.0000 C   0  0  0  0  0  0  0  0  0  0  0  0
   13.6638    5.4138    0.0000 C   0  0  0  0  0  0  0  0  0  0  0  0
   14.3783    5.0013    0.0000 C   0  0  0  0  0  0  0  0  0  0  0  0
   15.0927    5.4138    0.0000 C   0  0  0  0  0  0  0  0  0  0  0  0
   15.8072    5.0013    0.0000 C   0  0  0  0  0  0  0  0  0  0  0  0
   16.5217    5.4138    0.0000 C   0  0  0  0  0  0  0  0  0  0  0  0
   17.2362    5.0013    0.0000 C   0  0  0  0  0  0  0  0  0  0  0  0
   17.9506    5.4138    0.0000 C   0  0  0  0  0  0  0  0  0  0  0  0
   18.6651    5.0013    0.0000 C   0  0  0  0  0  0  0  0  0  0  0  0
   19.3796    5.4138    0.0000 C   0  0  0  0  0  0  0  0  0  0  0  0
  1  2  1  0
  2  3  1  0
  3  4  1  0
  4  5  1  0
  5  6  1  0
  6  7  1  0
  7  8  1  0
  8  9  1  0
  9 10  1  0
 10 11  1  0
 11 12  1  0
 12 13  1  0
 13 14  1  0
 14 15  1  0
 15 16  1  0
 16 17  1  0
 17 18  1  0
M  END
>  <name>  (729) 
octadecane

>  <Outcome>  (729) 
0

>  <SMILES>  (729) 
CCCCCCCCCCCCCCCCCC

$$$$

     RDKit          2D

 12 11  0  0  0  0  0  0  0  0999 V2000
   -2.6298    0.2340    0.0000 C   0  0  0  0  0  0  0  0  0  0  0  0
   -1.9153    0.6465    0.0000 C   0  0  0  0  0  0  0  0  0  0  0  0
   -1.5028   -0.0679    0.0000 C   0  0  0  0  0  0  0  0  0  0  0  0
   -2.3278    1.3610    0.0000 C   0  0  0  0  0  0  0  0  0  0  0  0
   -1.2009    1.0590    0.0000 C   0  0  0  0  0  0  0  0  0  0  0  0
   -0.4864    0.6465    0.0000 C   0  0  0  0  0  0  0  0  0  0  0  0
    0.2281    1.0590    0.0000 C   0  0  0  0  0  0  0  0  0  0  0  0
    0.9426    0.6465    0.0000 C   0  0  0  0  0  0  0  0  0  0  0  0
    1.6570    1.0590    0.0000 C   0  0  0  0  0  0  0  0  0  0  0  0
    2.3715    0.6465    0.0000 C   0  0  0  0  0  0  0  0  0  0  0  0
    3.0860    1.0590    0.0000 O   0  0  0  0  0  0  0  0  0  0  0  0
    2.3715   -0.1785    0.0000 Cl  0  0  0  0  0  0  0  0  0  0  0  0
  1  2  1  0
  2  3  1  0
  2  4  1  0
  2  5  1  0
  5  6  1  0
  6  7  1  0
  7  8  1  0
  8  9  1  0
  9 10  1  0
 10 11  2  0
 10 12  1  0
M  END
>  <name>  (730) 
2,5,5-trimethylheptanoyl chloride

>  <Outcome>  (730) 
1

>  <SMILES>  (730) 
CC(C)(C)CCCCCC(=O)Cl

$$$$

     RDKit          2D

 10 11  0  0  0  0  0  0  0  0999 V2000
    1.5000    0.0000    0.0000 C   0  0  0  0  0  0  0  0  0  0  0  0
    0.7500   -1.2990    0.0000 C   0  0  0  0  0  0  0  0  0  0  0  0
   -0.7500   -1.2990    0.0000 C   0  0  0  0  0  0  0  0  0  0  0  0
   -1.5000    0.0000    0.0000 C   0  0  0  0  0  0  0  0  0  0  0  0
   -3.0000    0.0000    0.0000 C   0  0  0  0  0  0  0  0  0  0  0  0
   -3.7500    1.2990    0.0000 C   0  0  0  0  0  0  0  0  0  0  0  0
   -3.0000    2.5981    0.0000 C   0  0  0  0  0  0  0  0  0  0  0  0
   -1.5000    2.5981    0.0000 C   0  0  0  0  0  0  0  0  0  0  0  0
   -0.7500    1.2990    0.0000 C   0  0  0  0  0  0  0  0  0  0  0  0
    0.7500    1.2990    0.0000 C   0  0  0  0  0  0  0  0  0  0  0  0
  1  2  2  0
  2  3  1  0
  3  4  2  0
  4  5  1  0
  5  6  2  0
  6  7  1  0
  7  8  2  0
  8  9  1  0
  9 10  2  0
 10  1  1  0
  9  4  1  0
M  END
>  <name>  (731) 
naphthalene

>  <Outcome>  (731) 
2

>  <SMILES>  (731) 
c1ccc2ccccc2c1

$$$$

     RDKit          2D

 11 11  0  0  0  0  0  0  0  0999 V2000
    1.5000    0.0000    0.0000 C   0  0  0  0  0  0  0  0  0  0  0  0
    0.7500   -1.2990    0.0000 C   0  0  0  0  0  0  0  0  0  0  0  0
   -0.7500   -1.2990    0.0000 C   0  0  0  0  0  0  0  0  0  0  0  0
   -1.5000    0.0000    0.0000 C   0  0  0  0  0  0  0  0  0  0  0  0
   -0.7500    1.2990    0.0000 C   0  0  0  0  0  0  0  0  0  0  0  0
    0.7500    1.2990    0.0000 C   0  0  0  0  0  0  0  0  0  0  0  0
   -3.0000    0.0000    0.0000 C   0  0  0  0  0  0  0  0  0  0  0  0
   -3.7500    1.2990    0.0000 C   0  0  0  0  0  0  0  0  0  0  0  0
   -5.2500    1.2990    0.0000 N   0  0  0  0  0  0  0  0  0  0  0  0
   -6.0000    2.5981    0.0000 C   0  0  0  0  0  0  0  0  0  0  0  0
   -6.7500    3.8971    0.0000 O   0  0  0  0  0  0  0  0  0  0  0  0
  1  2  2  0
  2  3  1  0
  3  4  2  0
  4  5  1  0
  5  6  2  0
  4  7  1  0
  7  8  1  0
  8  9  1  0
  9 10  2  0
 10 11  2  0
  6  1  1  0
M  END
>  <name>  (732) 
2-isocyanatoethylbenzene

>  <Outcome>  (732) 
2

>  <SMILES>  (732) 
O=C=NCCc1ccccc1

$$$$

     RDKit          2D

 12 12  0  0  0  0  0  0  0  0999 V2000
    2.6491    0.9642    0.0000 C   0  0  0  0  0  0  0  0  0  0  0  0
    1.5000    0.0000    0.0000 C   0  0  0  0  0  0  0  0  0  0  0  0
    0.7500   -1.2990    0.0000 C   0  0  0  0  0  0  0  0  0  0  0  0
   -0.7500   -1.2990    0.0000 C   0  0  0  0  0  0  0  0  0  0  0  0
   -1.5000    0.0000    0.0000 C   0  0  0  0  0  0  0  0  0  0  0  0
   -0.7500    1.2990    0.0000 C   0  0  0  0  0  0  0  0  0  0  0  0
    0.7500    1.2990    0.0000 C   0  0  0  0  0  0  0  0  0  0  0  0
   -2.1595    1.8121    0.0000 C   0  0  0  0  0  0  0  0  0  0  0  0
   -0.4895    2.7762    0.0000 C   0  0  0  0  0  0  0  0  0  0  0  0
   -1.6386    3.7404    0.0000 N   0  0  0  0  0  0  0  0  0  0  0  0
   -1.5000   -2.5981    0.0000 N   0  0  0  0  0  0  0  0  0  0  0  0
    2.6491   -0.9642    0.0000 C   0  0  0  0  0  0  0  0  0  0  0  0
  1  2  1  0
  2  3  1  0
  3  4  1  0
  4  5  1  0
  5  6  1  0
  6  7  1  0
  6  8  1  0
  6  9  1  0
  9 10  1  0
  4 11  1  0
  2 12  1  0
  7  2  1  0
M  END
>  <name>  (733) 
3-(aminomethyl)-3,5,5-trimethylcyclohexan-1-amine

>  <Outcome>  (733) 
2

>  <SMILES>  (733) 
CC1(C)CC(N)CC(C)(CN)C1

$$$$

     RDKit          2D

  5  4  0  0  0  0  0  0  0  0999 V2000
    0.0000    0.0000    0.0000 C   0  0  0  0  0  0  0  0  0  0  0  0
    1.2990    0.7500    0.0000 Si  0  0  0  0  0  4  0  0  0  0  0  0
    2.5981    1.5000    0.0000 Cl  0  0  0  0  0  0  0  0  0  0  0  0
    2.0490   -0.5490    0.0000 Cl  0  0  0  0  0  0  0  0  0  0  0  0
    0.5490    2.0490    0.0000 Cl  0  0  0  0  0  0  0  0  0  0  0  0
  1  2  1  0
  2  3  1  0
  2  4  1  0
  2  5  1  0
M  END
>  <name>  (734) 
trichloro(methyl)silane

>  <Outcome>  (734) 
2

>  <SMILES>  (734) 
C[Si](Cl)(Cl)Cl

$$$$

     RDKit          2D

  5  4  0  0  0  0  0  0  0  0999 V2000
    0.8910   -0.8250    0.0000 C   0  0  0  0  0  0  0  0  0  0  0  0
    0.8910    0.0000    0.0000 C   0  0  0  0  0  0  0  0  0  0  0  0
    0.8910    0.8250    0.0000 C   0  0  0  0  0  0  0  0  0  0  0  0
    1.7160   -0.0000    0.0000 C   0  0  0  0  0  0  0  0  0  0  0  0
    0.0660    0.0000    0.0000 N   0  0  0  0  0  0  0  0  0  0  0  0
  1  2  1  0
  2  3  1  0
  2  4  1  0
  2  5  1  0
M  END
>  <name>  (735) 
2-methylpropan-2-amine

>  <Outcome>  (735) 
1

>  <SMILES>  (735) 
CC(C)(C)N

$$$$

     RDKit          2D

 15 15  0  0  0  0  0  0  0  0999 V2000
    5.2500   -1.2990    0.0000 C   0  0  0  0  0  0  0  0  0  0  0  0
    3.7500   -1.2990    0.0000 C   0  0  0  0  0  0  0  0  0  0  0  0
    3.0000   -2.5981    0.0000 C   0  0  0  0  0  0  0  0  0  0  0  0
    3.0000    0.0000    0.0000 C   0  0  0  0  0  0  0  0  0  0  0  0
    1.5000    0.0000    0.0000 C   0  0  0  0  0  0  0  0  0  0  0  0
    0.7500   -1.2990    0.0000 C   0  0  0  0  0  0  0  0  0  0  0  0
   -0.7500   -1.2990    0.0000 C   0  0  0  0  0  0  0  0  0  0  0  0
   -1.5000    0.0000    0.0000 C   0  0  0  0  0  0  0  0  0  0  0  0
   -0.7500    1.2990    0.0000 C   0  0  0  0  0  0  0  0  0  0  0  0
    0.7500    1.2990    0.0000 C   0  0  0  0  0  0  0  0  0  0  0  0
   -3.0000    0.0000    0.0000 C   0  0  0  0  0  0  0  0  0  0  0  0
   -3.7500    1.2990    0.0000 C   0  0  0  0  0  0  0  0  0  0  0  0
   -3.7500   -1.2990    0.0000 C   0  0  0  0  0  0  0  0  0  0  0  0
   -3.0000   -2.5981    0.0000 O   0  0  0  0  0  0  0  0  0  0  0  0
   -5.2500   -1.2990    0.0000 O   0  0  0  0  0  0  0  0  0  0  0  0
  1  2  1  0
  2  3  1  0
  2  4  1  0
  4  5  1  0
  5  6  2  0
  6  7  1  0
  7  8  2  0
  8  9  1  0
  9 10  2  0
  8 11  1  0
 11 12  1  0
 11 13  1  0
 13 14  2  0
 13 15  1  0
 10  5  1  0
M  END
>  <name>  (736) 
2-[4-(2-methylpropyl)phenyl]propanoic acid

>  <Outcome>  (736) 
2

>  <SMILES>  (736) 
CC(C)Cc1ccc(C(C)C(=O)O)cc1

$$$$

     RDKit          2D

  5  4  0  0  0  0  0  0  0  0999 V2000
    0.0000    0.0000    0.0000 O   0  0  0  0  0  0  0  0  0  0  0  0
    1.2990    0.7500    0.0000 S   0  0  0  0  0  0  0  0  0  0  0  0
    2.5981    1.5000    0.0000 O   0  0  0  0  0  0  0  0  0  0  0  0
    2.0490   -0.5490    0.0000 F   0  0  0  0  0  0  0  0  0  0  0  0
    0.5490    2.0490    0.0000 F   0  0  0  0  0  0  0  0  0  0  0  0
  1  2  2  0
  2  3  2  0
  2  4  1  0
  2  5  1  0
M  END
>  <name>  (737) 
sulfuryl difluoride

>  <Outcome>  (737) 
2

>  <SMILES>  (737) 
O=S(=O)(F)F

$$$$

     RDKit          2D

  8  7  0  0  0  0  0  0  0  0999 V2000
    1.0461   -2.2539    0.0000 N   0  0  0  0  0  0  0  0  0  0  0  0
    1.7605   -1.8414    0.0000 C   0  0  0  0  0  0  0  0  0  0  0  0
    2.4750   -1.4289    0.0000 C   0  0  0  0  0  0  0  0  0  0  0  0
    3.1895   -1.8414    0.0000 C   0  0  0  0  0  0  0  0  0  0  0  0
    3.9039   -1.4289    0.0000 C   0  0  0  0  0  0  0  0  0  0  0  0
    4.6184   -1.8414    0.0000 C   0  0  0  0  0  0  0  0  0  0  0  0
    5.3329   -1.4289    0.0000 C   0  0  0  0  0  0  0  0  0  0  0  0
    6.0474   -1.0164    0.0000 N   0  0  0  0  0  0  0  0  0  0  0  0
  1  2  3  0
  2  3  1  0
  3  4  1  0
  4  5  1  0
  5  6  1  0
  6  7  1  0
  7  8  3  0
M  END
>  <name>  (738) 
hexanedinitrile

>  <Outcome>  (738) 
1

>  <SMILES>  (738) 
N#CCCCCC#N

$$$$

     RDKit          2D

  5  3  0  0  0  0  0  0  0  0999 V2000
    0.0000    0.0000    0.0000 C   0  0  0  0  0  0  0  0  0  0  0  0
   -0.0000   -1.5000    0.0000 O   0  0  0  0  0  0  0  0  0  0  0  0
    1.2990    0.7500    0.0000 O   0  0  0  0  0  1  0  0  0  0  0  0
   -1.2990    0.7500    0.0000 O   0  0  0  0  0  1  0  0  0  0  0  0
    0.0000    1.7500    0.0000 Co  0  0  0  0  0 15  0  0  0  0  0  0
  1  2  2  0
  1  3  1  0
  1  4  1  0
M  CHG  3   3  -1   4  -1   5   2
M  END
>  <name>  (739) 
cobalt(2+);carbonate

>  <Outcome>  (739) 
2

>  <SMILES>  (739) 
O=C([O-])[O-].[Co+2]

$$$$

     RDKit          2D

 19 18  0  0  0  0  0  0  0  0999 V2000
    6.0032    4.2826    0.0000 C   0  0  0  0  0  0  0  0  0  0  0  0
    6.7177    4.6951    0.0000 C   0  0  0  0  0  0  0  0  0  0  0  0
    7.4321    4.2826    0.0000 C   0  0  0  0  0  0  0  0  0  0  0  0
    8.1466    4.6951    0.0000 C   0  0  0  0  0  0  0  0  0  0  0  0
    8.8611    4.2826    0.0000 C   0  0  0  0  0  0  0  0  0  0  0  0
    9.5756    4.6951    0.0000 C   0  0  0  0  0  0  0  0  0  0  0  0
   10.2900    4.2826    0.0000 C   0  0  0  0  0  0  0  0  0  0  0  0
   11.0045    4.6951    0.0000 C   0  0  0  0  0  0  0  0  0  0  0  0
   11.7190    4.2826    0.0000 C   0  0  0  0  0  0  0  0  0  0  0  0
   12.4334    4.6951    0.0000 C   0  0  0  0  0  0  0  0  0  0  0  0
   13.1479    4.2826    0.0000 C   0  0  0  0  0  0  0  0  0  0  0  0
   13.8624    4.6951    0.0000 C   0  0  0  0  0  0  0  0  0  0  0  0
   13.8624    5.5201    0.0000 O   0  0  0  0  0  0  0  0  0  0  0  0
   14.5769    4.2826    0.0000 N   0  0  0  0  0  0  0  0  0  0  0  0
   14.5769    3.4576    0.0000 C   0  0  0  0  0  0  0  0  0  0  0  0
   15.2913    4.6951    0.0000 C   0  0  0  0  0  0  0  0  0  0  0  0
   16.0058    4.2826    0.0000 C   0  0  0  0  0  0  0  0  0  0  0  0
   16.7203    4.6951    0.0000 O   0  0  0  0  0  0  0  0  0  0  0  0
   16.0058    3.4576    0.0000 O   0  0  0  0  0  0  0  0  0  0  0  0
  1  2  1  0
  2  3  1  0
  3  4  1  0
  4  5  1  0
  5  6  1  0
  6  7  1  0
  7  8  1  0
  8  9  1  0
  9 10  1  0
 10 11  1  0
 11 12  1  0
 12 13  2  0
 12 14  1  0
 14 15  1  0
 14 16  1  0
 16 17  1  0
 17 18  2  0
 17 19  1  0
M  END
>  <name>  (740) 
sodium 2-(N-methyldodecanamido)acetate

>  <Outcome>  (740) 
1

>  <SMILES>  (740) 
CCCCCCCCCCCC(=O)N(C)CC(=O)O

$$$$

     RDKit          2D

 13 12  0  0  0  0  0  0  0  0999 V2000
    5.4730    3.9857    0.0000 C   0  0  0  0  0  0  0  0  0  0  0  0
    6.1875    3.5732    0.0000 C   0  0  0  0  0  0  0  0  0  0  0  0
    6.9020    3.9857    0.0000 C   0  0  0  0  0  0  0  0  0  0  0  0
    7.6164    3.5732    0.0000 C   0  0  0  0  0  0  0  0  0  0  0  0
    8.3309    3.9857    0.0000 C   0  0  0  0  0  0  0  0  0  0  0  0
    9.0454    3.5732    0.0000 C   0  0  0  0  0  0  0  0  0  0  0  0
    9.7599    3.9857    0.0000 C   0  0  0  0  0  0  0  0  0  0  0  0
   10.4743    3.5732    0.0000 C   0  0  0  0  0  0  0  0  0  0  0  0
   11.1888    3.9857    0.0000 C   0  0  0  0  0  0  0  0  0  0  0  0
   11.9033    3.5732    0.0000 C   0  0  0  0  0  0  0  0  0  0  0  0
   12.6177    3.9857    0.0000 C   0  0  0  0  0  0  0  0  0  0  0  0
   13.3322    3.5732    0.0000 C   0  0  0  0  0  0  0  0  0  0  0  0
   14.0467    3.9857    0.0000 C   0  0  0  0  0  0  0  0  0  0  0  0
  1  2  1  0
  2  3  1  0
  3  4  1  0
  4  5  1  0
  5  6  1  0
  6  7  1  0
  7  8  1  0
  8  9  1  0
  9 10  1  0
 10 11  1  0
 11 12  1  0
 12 13  1  0
M  END
>  <name>  (741) 
tridecane

>  <Outcome>  (741) 
0

>  <SMILES>  (741) 
CCCCCCCCCCCCC

$$$$

     RDKit          2D

  7  6  0  0  0  0  0  0  0  0999 V2000
    0.0000    0.0000    0.0000 C   0  0  0  0  0  0  0  0  0  0  0  0
    1.2990    0.7500    0.0000 N   0  0  0  0  0  0  0  0  0  0  0  0
    2.5981   -0.0000    0.0000 C   0  0  0  0  0  0  0  0  0  0  0  0
    1.2990    2.2500    0.0000 C   0  0  0  0  0  0  0  0  0  0  0  0
    2.5981    3.0000    0.0000 C   0  0  0  0  0  0  0  0  0  0  0  0
    2.5981    4.5000    0.0000 C   0  0  0  0  0  0  0  0  0  0  0  0
    3.8971    5.2500    0.0000 O   0  0  0  0  0  0  0  0  0  0  0  0
  1  2  1  0
  2  3  1  0
  2  4  1  0
  4  5  1  0
  5  6  1  0
  6  7  1  0
M  END
>  <name>  (742) 
3-(dimethylamino)propan-1-ol

>  <Outcome>  (742) 
2

>  <SMILES>  (742) 
CN(C)CCCO

$$$$

     RDKit          2D

  2  1  0  0  0  0  0  0  0  0999 V2000
    0.8250    0.0000    0.0000 C   0  0  0  0  0  0  0  0  0  0  0  0
   -0.0000    0.0000    0.0000 I   0  0  0  0  0  0  0  0  0  0  0  0
  1  2  1  0
M  END
>  <name>  (743) 
iodomethane

>  <Outcome>  (743) 
1

>  <SMILES>  (743) 
CI

$$$$

     RDKit          2D

  5  4  0  0  0  0  0  0  0  0999 V2000
    2.4738   -1.4309    0.0000 C   0  0  0  0  0  0  0  0  0  0  0  0
    2.0613   -0.7164    0.0000 C   0  0  0  0  0  0  0  0  0  0  0  0
    1.2363   -0.7164    0.0000 C   0  0  0  0  0  0  0  0  0  0  0  0
    0.8238   -0.0019    0.0000 C   0  0  0  0  0  0  0  0  0  0  0  0
   -0.0012   -0.0019    0.0000 N   0  0  0  0  0  0  0  0  0  0  0  0
  1  2  1  0
  2  3  1  0
  3  4  1  0
  4  5  1  0
M  END
>  <name>  (744) 
butan-1-amine

>  <Outcome>  (744) 
1

>  <SMILES>  (744) 
CCCCN

$$$$

     RDKit          2D

 26 25  0  0  0  0  0  0  0  0999 V2000
   12.1836    7.8596    0.0000 C   0  0  0  0  0  0  0  0  0  0  0  0
   12.8980    8.2721    0.0000 C   0  0  0  0  0  0  0  0  0  0  0  0
   13.6125    7.8596    0.0000 C   0  0  0  0  0  0  0  0  0  0  0  0
   14.3270    8.2721    0.0000 C   0  0  0  0  0  0  0  0  0  0  0  0
   15.0414    7.8596    0.0000 C   0  0  0  0  0  0  0  0  0  0  0  0
   15.7559    8.2721    0.0000 C   0  0  0  0  0  0  0  0  0  0  0  0
   16.4704    7.8596    0.0000 C   0  0  0  0  0  0  0  0  0  0  0  0
   17.1849    8.2721    0.0000 C   0  0  0  0  0  0  0  0  0  0  0  0
   17.8993    7.8596    0.0000 C   0  0  0  0  0  0  0  0  0  0  0  0
   18.6138    8.2721    0.0000 C   0  0  0  0  0  0  0  0  0  0  0  0
   19.3283    7.8596    0.0000 C   0  0  0  0  0  0  0  0  0  0  0  0
   20.0427    8.2721    0.0000 C   0  0  0  0  0  0  0  0  0  0  0  0
   20.7572    7.8596    0.0000 C   0  0  0  0  0  0  0  0  0  0  0  0
   21.4717    8.2721    0.0000 C   0  0  0  0  0  0  0  0  0  0  0  0
   22.1862    7.8596    0.0000 C   0  0  0  0  0  0  0  0  0  0  0  0
   22.9006    8.2721    0.0000 C   0  0  0  0  0  0  0  0  0  0  0  0
   23.6151    7.8596    0.0000 C   0  0  0  0  0  0  0  0  0  0  0  0
   24.3296    8.2721    0.0000 C   0  0  0  0  0  0  0  0  0  0  0  0
   25.0440    7.8596    0.0000 C   0  0  0  0  0  0  0  0  0  0  0  0
   25.7585    8.2721    0.0000 C   0  0  0  0  0  0  0  0  0  0  0  0
   26.4730    7.8596    0.0000 C   0  0  0  0  0  0  0  0  0  0  0  0
   27.1874    8.2721    0.0000 C   0  0  0  0  0  0  0  0  0  0  0  0
   27.9019    7.8596    0.0000 C   0  0  0  0  0  0  0  0  0  0  0  0
   28.6164    8.2721    0.0000 C   0  0  0  0  0  0  0  0  0  0  0  0
   29.3309    7.8596    0.0000 C   0  0  0  0  0  0  0  0  0  0  0  0
   30.0453    8.2721    0.0000 C   0  0  0  0  0  0  0  0  0  0  0  0
  1  2  2  0
  2  3  1  0
  3  4  1  0
  4  5  1  0
  5  6  1  0
  6  7  1  0
  7  8  1  0
  8  9  1  0
  9 10  1  0
 10 11  1  0
 11 12  1  0
 12 13  1  0
 13 14  1  0
 14 15  1  0
 15 16  1  0
 16 17  1  0
 17 18  1  0
 18 19  1  0
 19 20  1  0
 20 21  1  0
 21 22  1  0
 22 23  1  0
 23 24  1  0
 24 25  1  0
 25 26  1  0
M  END
>  <name>  (745) 
Alkenes, C24-28 ??-

>  <Outcome>  (745) 
0

>  <SMILES>  (745) 
C=CCCCCCCCCCCCCCCCCCCCCCCCC

$$$$

     RDKit          2D

  8  7  0  0  0  0  0  0  0  0999 V2000
    0.0000    0.0000    0.0000 C   0  0  0  0  0  0  0  0  0  0  0  0
   -0.0000   -1.5000    0.0000 O   0  0  0  0  0  0  0  0  0  0  0  0
    1.2990    0.7500    0.0000 N   0  0  0  0  0  0  0  0  0  0  0  0
   -1.2990    0.7500    0.0000 N   0  0  0  0  0  0  0  0  0  0  0  0
   -2.5981    0.0000    0.0000 N   0  0  0  0  0  0  0  0  0  0  0  0
   -3.8971    0.7500    0.0000 C   0  0  0  0  0  0  0  0  0  0  0  0
   -3.8971    2.2500    0.0000 O   0  0  0  0  0  0  0  0  0  0  0  0
   -5.1962    0.0000    0.0000 N   0  0  0  0  0  0  0  0  0  0  0  0
  1  2  2  0
  1  3  1  0
  1  4  1  0
  4  5  2  3
  5  6  1  0
  6  7  2  0
  6  8  1  0
M  END
>  <name>  (746) 
(E)-carbamoyliminourea

>  <Outcome>  (746) 
2

>  <SMILES>  (746) 
NC(=O)N=NC(N)=O

$$$$

     RDKit          2D

 18 17  0  0  0  0  0  0  0  0999 V2000
    1.2375   -0.7145    0.0000 F   0  0  0  0  0  0  0  0  0  0  0  0
    0.8250    0.0000    0.0000 C   0  0  0  0  0  0  0  0  0  0  0  0
   -0.0000    0.0000    0.0000 C   0  0  0  0  0  0  0  0  0  0  0  0
   -0.4125    0.7145    0.0000 F   0  0  0  0  0  0  0  0  0  0  0  0
   -0.4125   -0.7145    0.0000 C   0  0  0  0  0  0  0  0  0  0  0  0
    0.3020   -1.1270    0.0000 F   0  0  0  0  0  0  0  0  0  0  0  0
   -1.1270   -0.3020    0.0000 C   0  0  0  0  0  0  0  0  0  0  0  0
   -1.8414    0.1105    0.0000 F   0  0  0  0  0  0  0  0  0  0  0  0
   -1.5395   -1.0164    0.0000 F   0  0  0  0  0  0  0  0  0  0  0  0
   -0.7145    0.4125    0.0000 F   0  0  0  0  0  0  0  0  0  0  0  0
   -0.8250   -1.4289    0.0000 C   0  0  0  0  0  0  0  0  0  0  0  0
   -1.2375   -2.1434    0.0000 F   0  0  0  0  0  0  0  0  0  0  0  0
   -1.6455   -1.5152    0.0000 F   0  0  0  0  0  0  0  0  0  0  0  0
   -0.1105   -1.8414    0.0000 F   0  0  0  0  0  0  0  0  0  0  0  0
    1.2375    0.7145    0.0000 C   0  0  0  0  0  0  0  0  0  0  0  0
    1.6500    1.4289    0.0000 F   0  0  0  0  0  0  0  0  0  0  0  0
    1.9520    0.3020    0.0000 F   0  0  0  0  0  0  0  0  0  0  0  0
    0.5230    1.1270    0.0000 F   0  0  0  0  0  0  0  0  0  0  0  0
  2  1  1  0
  2  3  2  3
  3  4  1  0
  3  5  1  0
  5  6  1  0
  5  7  1  0
  7  8  1  0
  7  9  1  0
  7 10  1  0
  5 11  1  0
 11 12  1  0
 11 13  1  0
 11 14  1  0
  2 15  1  0
 15 16  1  0
 15 17  1  0
 15 18  1  0
M  END
>  <name>  (747) 
unnamed [3709-71-5]

>  <Outcome>  (747) 
0

>  <SMILES>  (747) 
FC(=C(F)C(F)(C(F)(F)F)C(F)(F)F)C(F)(F)F

$$$$

     RDKit          2D

  5  0  0  0  0  0  0  0  0  0999 V2000
    0.0000    0.0000    0.0000 O   0  0  0  0  0 15  0  0  0  0  0  0
    1.0000    0.0000    0.0000 O   0  0  0  0  0 15  0  0  0  0  0  0
    0.0000    1.0000    0.0000 O   0  0  0  0  0 15  0  0  0  0  0  0
    2.0000    0.0000    0.0000 Y   0  0  0  0  0 15  0  0  0  0  0  0
    0.0000    2.0000    0.0000 Y   0  0  0  0  0 15  0  0  0  0  0  0
M  CHG  5   1  -2   2  -2   3  -2   4   3   5   3
M  END
>  <name>  (748) 
oxygen(2-);yttrium(3+)

>  <Outcome>  (748) 
2

>  <SMILES>  (748) 
[O-2].[O-2].[O-2].[Y+3].[Y+3]

$$$$

     RDKit          2D

 11 12  0  0  0  0  0  0  0  0999 V2000
   -0.5821    7.9957    0.0000 C   0  0  0  0  0  0  0  0  0  0  0  0
    0.1324    7.5832    0.0000 C   0  0  0  0  0  0  0  0  0  0  0  0
    0.1324    6.7582    0.0000 C   0  0  0  0  0  0  0  0  0  0  0  0
   -0.5821    6.3457    0.0000 C   0  0  0  0  0  0  0  0  0  0  0  0
   -0.5821    5.5207    0.0000 O   0  0  0  0  0  0  0  0  0  0  0  0
    0.1324    5.1082    0.0000 C   0  0  0  0  0  0  0  0  0  0  0  0
    0.1324    4.2832    0.0000 C   0  0  0  0  0  0  0  0  0  0  0  0
    0.5449    3.5688    0.0000 C   0  0  0  0  0  0  0  0  0  0  0  0
   -0.2801    3.5688    0.0000 O   0  0  0  0  0  0  0  0  0  0  0  0
   -1.2965    6.7582    0.0000 C   0  0  0  0  0  0  0  0  0  0  0  0
   -1.2965    7.5832    0.0000 C   0  0  0  0  0  0  0  0  0  0  0  0
  1  2  2  0
  2  3  1  0
  3  4  2  0
  4  5  1  0
  5  6  1  0
  6  7  1  0
  7  8  1  0
  8  9  1  0
  7  9  1  0
  4 10  1  0
 10 11  2  0
  1 11  1  0
M  END
>  <name>  (749) 
2-(phenoxymethyl)oxirane

>  <Outcome>  (749) 
1

>  <SMILES>  (749) 
c1ccc(OCC2CO2)cc1

$$$$

     RDKit          2D

  7  4  0  0  0  0  0  0  0  0999 V2000
    0.0000    0.0000    0.0000 O   0  0  0  0  0  1  0  0  0  0  0  0
    1.2990    0.7500    0.0000 Si  0  0  0  0  0  4  0  0  0  0  0  0
    2.5981    1.5000    0.0000 O   0  0  0  0  0  1  0  0  0  0  0  0
    2.0490   -0.5490    0.0000 O   0  0  0  0  0  1  0  0  0  0  0  0
    0.5490    2.0490    0.0000 O   0  0  0  0  0  1  0  0  0  0  0  0
    3.5981    0.0000    0.0000 Ca  0  0  0  0  0 15  0  0  0  0  0  0
    0.0000    3.0490    0.0000 Ca  0  0  0  0  0 15  0  0  0  0  0  0
  1  2  1  0
  2  3  1  0
  2  4  1  0
  2  5  1  0
M  CHG  6   1  -1   3  -1   4  -1   5  -1   6   2   7   2
M  END
>  <name>  (750) 
dicalcium;silicate

>  <Outcome>  (750) 
2

>  <SMILES>  (750) 
[Ca+2].[Ca+2].[O-][Si]([O-])([O-])[O-]

$$$$

     RDKit          2D

 10  9  0  0  0  0  0  0  0  0999 V2000
    2.9485   -0.5547    0.0000 C   0  0  0  0  0  0  0  0  0  0  0  0
    2.5360    0.1598    0.0000 O   0  0  0  0  0  0  0  0  0  0  0  0
    1.7110    0.1598    0.0000 Si  0  0  0  0  0  4  0  0  0  0  0  0
    1.7110    0.9848    0.0000 C   0  0  0  0  0  0  0  0  0  0  0  0
    0.8860    0.1598    0.0000 C   0  0  0  0  0  0  0  0  0  0  0  0
    0.4735    0.8743    0.0000 N   0  0  0  0  0  0  0  0  0  0  0  0
   -0.3515    0.8743    0.0000 C   0  0  0  0  0  0  0  0  0  0  0  0
   -1.1765    0.8743    0.0000 O   0  0  0  0  0  0  0  0  0  0  0  0
    1.7110   -0.6652    0.0000 O   0  0  0  0  0  0  0  0  0  0  0  0
    0.9965   -1.0777    0.0000 C   0  0  0  0  0  0  0  0  0  0  0  0
  1  2  1  0
  2  3  1  0
  3  4  1  0
  3  5  1  0
  5  6  1  0
  6  7  2  0
  7  8  2  0
  3  9  1  0
  9 10  1  0
M  END
>  <name>  (751) 
(Isocyanatomethyl)(dimethoxy)methylsilane

>  <Outcome>  (751) 
1

>  <SMILES>  (751) 
CO[Si](C)(CN=C=O)OC

$$$$

     RDKit          2D

  7  6  0  0  0  0  0  0  0  0999 V2000
    0.0000    0.0000    0.0000 C   0  0  0  0  0  0  0  0  0  0  0  0
    1.2990    0.7500    0.0000 C   0  0  0  0  0  0  0  0  0  0  0  0
    2.5981   -0.0000    0.0000 C   0  0  0  0  0  0  0  0  0  0  0  0
    3.8971    0.7500    0.0000 C   0  0  0  0  0  0  0  0  0  0  0  0
    3.8971    2.2500    0.0000 N   0  0  0  0  0  0  0  0  0  0  0  0
    5.1962    3.0000    0.0000 O   0  0  0  0  0  0  0  0  0  0  0  0
    5.1962   -0.0000    0.0000 C   0  0  0  0  0  0  0  0  0  0  0  0
  1  2  1  0
  2  3  1  0
  3  4  1  0
  4  5  2  3
  5  6  1  0
  4  7  1  0
M  END
>  <name>  (752) 
(NE)-N-pentan-2-ylidenehydroxylamine

>  <Outcome>  (752) 
2

>  <SMILES>  (752) 
CCCC(C)=NO

$$$$

     RDKit          2D

  9  9  0  0  0  0  0  0  0  0999 V2000
    3.0000    0.0000    0.0000 C   0  0  0  0  0  0  0  0  0  0  0  0
    1.5000    0.0000    0.0000 C   0  0  0  0  0  0  0  0  0  0  0  0
    0.7500   -1.2990    0.0000 C   0  0  0  0  0  0  0  0  0  0  0  0
   -0.7500   -1.2990    0.0000 C   0  0  0  0  0  0  0  0  0  0  0  0
   -1.5000    0.0000    0.0000 C   0  0  0  0  0  0  0  0  0  0  0  0
   -0.7500    1.2990    0.0000 C   0  0  0  0  0  0  0  0  0  0  0  0
    0.7500    1.2990    0.0000 C   0  0  0  0  0  0  0  0  0  0  0  0
   -1.5000   -2.5981    0.0000 O   0  0  0  0  0  0  0  0  0  0  0  0
    1.5000   -2.5981    0.0000 C   0  0  0  0  0  0  0  0  0  0  0  0
  1  2  1  0
  2  3  2  0
  3  4  1  0
  4  5  2  0
  5  6  1  0
  6  7  2  0
  4  8  1  0
  3  9  1  0
  7  2  1  0
M  END
>  <name>  (753) 
2,3-dimethylphenol

>  <Outcome>  (753) 
2

>  <SMILES>  (753) 
Cc1cccc(O)c1C

$$$$

     RDKit          2D

  7  6  0  0  0  0  0  0  0  0999 V2000
    2.4152    0.0436    0.0000 C   0  0  0  0  0  0  0  0  0  0  0  0
    2.0027    0.7581    0.0000 C   0  0  0  0  0  0  0  0  0  0  0  0
    1.1777    0.7581    0.0000 Si  0  0  0  0  0  3  0  0  0  0  0  0
    0.7652    1.4725    0.0000 C   0  0  0  0  0  0  0  0  0  0  0  0
   -0.0598    1.4725    0.0000 C   0  0  0  0  0  0  0  0  0  0  0  0
    0.7652    0.0436    0.0000 C   0  0  0  0  0  0  0  0  0  0  0  0
   -0.0598    0.0436    0.0000 C   0  0  0  0  0  0  0  0  0  0  0  0
  1  2  1  0
  2  3  1  0
  3  4  1  0
  4  5  1  0
  3  6  1  0
  6  7  1  0
M  RAD  1   3   2
M  END
>  <name>  (754) 
triethylsilane

>  <Outcome>  (754) 
0

>  <SMILES>  (754) 
CC[Si](CC)CC

$$$$

     RDKit          2D

  1  0  0  0  0  0  0  0  0  0999 V2000
    0.0000    0.0000    0.0000 Te  0  0  0  0  0 15  0  0  0  0  0  0
M  END
>  <name>  (755) 
tellurium

>  <Outcome>  (755) 
2

>  <SMILES>  (755) 
[Te]

$$$$

     RDKit          2D

  8  8  0  0  0  0  0  0  0  0999 V2000
    1.5000    0.0000    0.0000 C   0  0  0  0  0  0  0  0  0  0  0  0
    0.7500   -1.2990    0.0000 C   0  0  0  0  0  0  0  0  0  0  0  0
   -0.7500   -1.2990    0.0000 C   0  0  0  0  0  0  0  0  0  0  0  0
   -1.5000    0.0000    0.0000 C   0  0  0  0  0  0  0  0  0  0  0  0
   -0.7500    1.2990    0.0000 C   0  0  0  0  0  0  0  0  0  0  0  0
    0.7500    1.2990    0.0000 C   0  0  0  0  0  0  0  0  0  0  0  0
   -1.5000    2.5981    0.0000 O   0  0  0  0  0  0  0  0  0  0  0  0
   -3.0000    0.0000    0.0000 Cl  0  0  0  0  0  0  0  0  0  0  0  0
  1  2  2  0
  2  3  1  0
  3  4  2  0
  4  5  1  0
  5  6  2  0
  5  7  1  0
  4  8  1  0
  6  1  1  0
M  END
>  <name>  (756) 
2-chlorophenol

>  <Outcome>  (756) 
2

>  <SMILES>  (756) 
Oc1ccccc1Cl

$$$$

     RDKit          2D

 18 20  0  0  0  0  0  0  0  0999 V2000
   -3.5121    7.9292    0.0000 C   0  0  0  0  0  0  0  0  0  0  0  0
   -2.7976    7.5167    0.0000 C   0  0  0  0  0  0  0  0  0  0  0  0
   -2.7976    6.6917    0.0000 C   0  0  0  0  0  0  0  0  0  0  0  0
   -2.0831    6.2792    0.0000 C   0  0  0  0  0  0  0  0  0  0  0  0
   -2.0831    5.4542    0.0000 O   0  0  0  0  0  0  0  0  0  0  0  0
   -1.3686    5.0417    0.0000 C   0  0  0  0  0  0  0  0  0  0  0  0
   -1.3686    4.2167    0.0000 C   0  0  0  0  0  0  0  0  0  0  0  0
   -0.9561    3.5023    0.0000 C   0  0  0  0  0  0  0  0  0  0  0  0
   -1.7811    3.5023    0.0000 O   0  0  0  0  0  0  0  0  0  0  0  0
   -3.5121    6.2792    0.0000 C   0  0  0  0  0  0  0  0  0  0  0  0
   -4.2265    6.6917    0.0000 C   0  0  0  0  0  0  0  0  0  0  0  0
   -4.2265    7.5167    0.0000 C   0  0  0  0  0  0  0  0  0  0  0  0
   -4.9410    7.9292    0.0000 C   0  0  0  0  0  0  0  0  0  0  0  0
   -4.9410    8.7542    0.0000 O   0  0  0  0  0  0  0  0  0  0  0  0
   -5.6555    9.1667    0.0000 C   0  0  0  0  0  0  0  0  0  0  0  0
   -5.6555    9.9917    0.0000 C   0  0  0  0  0  0  0  0  0  0  0  0
   -6.0680   10.7062    0.0000 C   0  0  0  0  0  0  0  0  0  0  0  0
   -5.2430   10.7062    0.0000 O   0  0  0  0  0  0  0  0  0  0  0  0
  1  2  1  0
  2  3  1  0
  3  4  1  0
  4  5  1  0
  5  6  1  0
  6  7  1  0
  7  8  1  0
  8  9  1  0
  7  9  1  0
  3 10  1  0
 10 11  1  0
 11 12  1  0
  1 12  1  0
 12 13  1  0
 13 14  1  0
 14 15  1  0
 15 16  1  0
 16 17  1  0
 17 18  1  0
 16 18  1  0
M  END
>  <name>  (757) 
2-[({4-[(oxiran-2-ylmethoxy)methyl]cyclohexyl}methoxy)methyl]oxirane

>  <Outcome>  (757) 
0

>  <SMILES>  (757) 
C1CC(COCC2CO2)CCC1COCC1CO1

$$$$

     RDKit          2D

 10 11  0  0  0  0  0  0  0  0999 V2000
   -0.0199   -2.4558    0.0000 C   0  0  0  0  0  0  0  0  0  0  0  0
    0.6946   -2.0433    0.0000 C   0  0  0  0  0  0  0  0  0  0  0  0
    0.6946   -1.2183    0.0000 C   0  0  0  0  0  0  0  0  0  0  0  0
   -0.0900   -1.4732    0.0000 C   0  0  0  0  0  0  0  0  0  0  0  0
   -0.5750   -0.8058    0.0000 O   0  0  0  0  0  0  0  0  0  0  0  0
   -0.0900   -0.1384    0.0000 C   0  0  0  0  0  0  0  0  0  0  0  0
    0.6946   -0.3933    0.0000 N   0  0  0  0  0  0  0  0  0  0  0  0
    1.4792   -0.1384    0.0000 C   0  0  0  0  0  0  0  0  0  0  0  0
    1.9641   -0.8058    0.0000 O   0  0  0  0  0  0  0  0  0  0  0  0
    1.4792   -1.4732    0.0000 C   0  0  0  0  0  0  0  0  0  0  0  0
  1  2  1  0
  2  3  1  0
  3  4  1  0
  4  5  1  0
  5  6  1  0
  6  7  1  0
  3  7  1  0
  7  8  1  0
  8  9  1  0
  9 10  1  0
  3 10  1  0
M  END
>  <name>  (758) 
7a-ethyldihydro-1H-[1,3]oxazolo[3,4-c][1,3]oxazole

>  <Outcome>  (758) 
1

>  <SMILES>  (758) 
CCC12COCN1COC2

$$$$

     RDKit          2D

 24 26  0  0  0  0  0  0  0  0999 V2000
   -0.7527   -2.9433    0.0000 C   0  0  0  0  0  0  0  0  0  0  0  0
   -0.0382   -2.5308    0.0000 C   0  0  0  0  0  0  0  0  0  0  0  0
    0.6763   -2.9433    0.0000 N   0  0  0  0  0  0  0  0  0  0  0  0
    0.6763   -3.7683    0.0000 C   0  0  0  0  0  0  0  0  0  0  0  0
    1.3907   -4.1808    0.0000 C   0  0  0  0  0  0  0  0  0  0  0  0
    1.3907   -2.5308    0.0000 C   0  0  0  0  0  0  0  0  0  0  0  0
    1.3907   -1.7058    0.0000 C   0  0  0  0  0  0  0  0  0  0  0  0
    2.1052   -1.2933    0.0000 C   0  0  0  0  0  0  0  0  0  0  0  0
    2.8197   -1.7058    0.0000 C   0  0  0  0  0  0  0  0  0  0  0  0
    3.5341   -1.2933    0.0000 N   0  0  0  0  0  0  0  0  0  0  0  0
    4.2486   -1.7058    0.0000 C   0  0  0  0  0  0  0  0  0  0  0  0
    4.9631   -1.2933    0.0000 C   0  0  0  0  0  0  0  0  0  0  0  0
    5.6776   -1.7058    0.0000 C   0  0  0  0  0  0  0  0  0  0  0  0
    5.6776   -2.5308    0.0000 C   0  0  0  0  0  0  0  0  0  0  0  0
    6.3920   -2.9433    0.0000 N   0  0  0  0  0  0  0  0  0  0  0  0
    6.3920   -3.7683    0.0000 C   0  0  0  0  0  0  0  0  0  0  0  0
    7.1065   -4.1808    0.0000 C   0  0  0  0  0  0  0  0  0  0  0  0
    7.1065   -2.5308    0.0000 C   0  0  0  0  0  0  0  0  0  0  0  0
    7.8210   -2.9433    0.0000 C   0  0  0  0  0  0  0  0  0  0  0  0
    4.9631   -2.9433    0.0000 C   0  0  0  0  0  0  0  0  0  0  0  0
    4.2486   -2.5308    0.0000 C   0  0  0  0  0  0  0  0  0  0  0  0
    3.5341   -2.9433    0.0000 O   0  0  0  0  0  0  0  0  0  0  0  0
    2.8197   -2.5308    0.0000 C   0  0  0  0  0  0  0  0  0  0  0  0
    2.1052   -2.9433    0.0000 C   0  0  0  0  0  0  0  0  0  0  0  0
  1  2  1  0
  2  3  1  0
  3  4  1  0
  4  5  1  0
  3  6  1  0
  6  7  2  0
  7  8  1  0
  8  9  2  0
  9 10  1  0
 10 11  2  0
 11 12  1  0
 12 13  2  0
 13 14  1  0
 14 15  1  0
 15 16  1  0
 16 17  1  0
 15 18  1  0
 18 19  1  0
 14 20  2  0
 20 21  1  0
 11 21  1  0
 21 22  2  0
 22 23  1  0
  9 23  1  0
 23 24  2  0
  6 24  1  0
M  CHG  1  22   1
M  END
>  <name>  (759) 
3,7-bis(diethylamino)-5??????-phenoxazin-5-ylium nitrate

>  <Outcome>  (759) 
1

>  <SMILES>  (759) 
CCN(CC)c1ccc2nc3ccc(N(CC)CC)cc3[o+]c2c1

$$$$

     RDKit          2D

  5  4  0  0  0  0  0  0  0  0999 V2000
    0.0000    0.0000    0.0000 C   0  0  0  0  0  0  0  0  0  0  0  0
    1.2990    0.7500    0.0000 C   0  0  0  0  0  0  0  0  0  0  0  0
    2.5981   -0.0000    0.0000 Cl  0  0  0  0  0  0  0  0  0  0  0  0
   -1.2990    0.7500    0.0000 C   0  0  0  0  0  0  0  0  0  0  0  0
   -2.5981    0.0000    0.0000 Cl  0  0  0  0  0  0  0  0  0  0  0  0
  1  2  1  0
  2  3  1  0
  1  4  1  0
  4  5  1  0
M  END
>  <name>  (760) 
1,3-dichloropropane

>  <Outcome>  (760) 
2

>  <SMILES>  (760) 
ClCCCCl

$$$$

     RDKit          2D

 10  9  0  0  0  0  0  0  0  0999 V2000
    0.0000    0.0000    0.0000 C   0  0  0  0  0  0  0  0  0  0  0  0
    1.2990    0.7500    0.0000 C   0  0  0  0  0  0  0  0  0  0  0  0
    2.5981   -0.0000    0.0000 O   0  0  0  0  0  0  0  0  0  0  0  0
    3.8971    0.7500    0.0000 C   0  0  0  0  0  0  0  0  0  0  0  0
    5.1962   -0.0000    0.0000 C   0  0  0  0  0  0  0  0  0  0  0  0
    6.4952    0.7500    0.0000 O   0  0  0  0  0  0  0  0  0  0  0  0
    7.7942   -0.0000    0.0000 C   0  0  0  0  0  0  0  0  0  0  0  0
    9.0933    0.7500    0.0000 C   0  0  0  0  0  0  0  0  0  0  0  0
   10.3923   -0.0000    0.0000 O   0  0  0  0  0  0  0  0  0  0  0  0
   11.6913    0.7500    0.0000 C   0  0  0  0  0  0  0  0  0  0  0  0
  1  2  1  0
  2  3  1  0
  3  4  1  0
  4  5  1  0
  5  6  1  0
  6  7  1  0
  7  8  1  0
  8  9  1  0
  9 10  1  0
M  END
>  <name>  (761) 
1-(2-ethoxyethoxy)-2-methoxyethane

>  <Outcome>  (761) 
2

>  <SMILES>  (761) 
CCOCCOCCOC

$$$$

     RDKit          2D

  6  5  0  0  0  0  0  0  0  0999 V2000
    1.2405    0.7145    0.0000 C   0  0  0  0  0  0  0  0  0  0  0  0
    0.8280    0.0000    0.0000 C   0  0  0  0  0  0  0  0  0  0  0  0
    1.2405   -0.7145    0.0000 Cl  0  0  0  0  0  0  0  0  0  0  0  0
    0.0030    0.0000    0.0000 C   0  0  0  0  0  0  0  0  0  0  0  0
   -0.4095   -0.7145    0.0000 C   0  0  0  0  0  0  0  0  0  0  0  0
    0.0030   -1.4289    0.0000 Cl  0  0  0  0  0  0  0  0  0  0  0  0
  1  2  1  0
  2  3  1  0
  2  4  2  3
  4  5  1  0
  5  6  1  0
M  END
>  <name>  (762) 
1,3-dichlorobut-2-ene

>  <Outcome>  (762) 
1

>  <SMILES>  (762) 
CC(Cl)=CCCl

$$$$

     RDKit          2D

 14 13  0  0  0  0  0  0  0  0999 V2000
    4.7586    3.5732    0.0000 C   0  0  0  0  0  0  0  0  0  0  0  0
    5.4730    3.9857    0.0000 C   0  0  0  0  0  0  0  0  0  0  0  0
    6.1875    3.5732    0.0000 C   0  0  0  0  0  0  0  0  0  0  0  0
    6.9020    3.9857    0.0000 C   0  0  0  0  0  0  0  0  0  0  0  0
    7.6164    3.5732    0.0000 C   0  0  0  0  0  0  0  0  0  0  0  0
    8.3309    3.9857    0.0000 C   0  0  0  0  0  0  0  0  0  0  0  0
    9.0454    3.5732    0.0000 C   0  0  0  0  0  0  0  0  0  0  0  0
    9.7599    3.9857    0.0000 C   0  0  0  0  0  0  0  0  0  0  0  0
   10.4743    3.5732    0.0000 C   0  0  0  0  0  0  0  0  0  0  0  0
   11.1888    3.9857    0.0000 C   0  0  0  0  0  0  0  0  0  0  0  0
   11.9033    3.5732    0.0000 C   0  0  0  0  0  0  0  0  0  0  0  0
   12.6177    3.9857    0.0000 C   0  0  0  0  0  0  0  0  0  0  0  0
   13.3322    3.5732    0.0000 C   0  0  0  0  0  0  0  0  0  0  0  0
   14.0467    3.9857    0.0000 C   0  0  0  0  0  0  0  0  0  0  0  0
  1  2  2  0
  2  3  1  0
  3  4  1  0
  4  5  1  0
  5  6  1  0
  6  7  1  0
  7  8  1  0
  8  9  1  0
  9 10  1  0
 10 11  1  0
 11 12  1  0
 12 13  1  0
 13 14  1  0
M  END
>  <name>  (763) 
tetradec-1-ene

>  <Outcome>  (763) 
0

>  <SMILES>  (763) 
C=CCCCCCCCCCCCC

$$$$

     RDKit          2D

 24 28  0  0  0  0  0  0  0  0999 V2000
    1.5000    0.0000    0.0000 C   0  0  0  0  0  0  0  0  0  0  0  0
    0.7500   -1.2990    0.0000 C   0  0  0  0  0  0  0  0  0  0  0  0
   -0.7500   -1.2990    0.0000 C   0  0  0  0  0  0  0  0  0  0  0  0
   -1.5000    0.0000    0.0000 C   0  0  0  0  0  0  0  0  0  0  0  0
   -0.7500    1.2990    0.0000 C   0  0  0  0  0  0  0  0  0  0  0  0
    0.7500    1.2990    0.0000 C   0  0  0  0  0  0  0  0  0  0  0  0
   -1.5000    2.5981    0.0000 C   0  0  0  0  0  0  0  0  0  0  0  0
   -0.7500    3.8971    0.0000 O   0  0  0  0  0  0  0  0  0  0  0  0
   -3.0000    2.5981    0.0000 C   0  0  0  0  0  0  0  0  0  0  0  0
   -3.7500    3.8971    0.0000 C   0  0  0  0  0  0  0  0  0  0  0  0
   -5.2500    3.8971    0.0000 C   0  0  0  0  0  0  0  0  0  0  0  0
   -6.0000    2.5981    0.0000 C   0  0  0  0  0  0  0  0  0  0  0  0
   -5.2500    1.2990    0.0000 C   0  0  0  0  0  0  0  0  0  0  0  0
   -3.7500    1.2990    0.0000 C   0  0  0  0  0  0  0  0  0  0  0  0
   -3.0000    0.0000    0.0000 N   0  0  0  0  0  0  0  0  0  0  0  0
   -7.5000    2.5981    0.0000 C   0  0  0  0  0  0  0  0  0  0  0  0
   -8.2500    1.2990    0.0000 O   0  0  0  0  0  0  0  0  0  0  0  0
   -8.2500    3.8971    0.0000 C   0  0  0  0  0  0  0  0  0  0  0  0
   -9.7500    3.8971    0.0000 C   0  0  0  0  0  0  0  0  0  0  0  0
  -10.5000    5.1962    0.0000 C   0  0  0  0  0  0  0  0  0  0  0  0
   -9.7500    6.4952    0.0000 C   0  0  0  0  0  0  0  0  0  0  0  0
   -8.2500    6.4952    0.0000 C   0  0  0  0  0  0  0  0  0  0  0  0
   -7.5000    5.1962    0.0000 C   0  0  0  0  0  0  0  0  0  0  0  0
   -6.0000    5.1962    0.0000 N   0  0  0  0  0  0  0  0  0  0  0  0
  1  2  2  0
  2  3  1  0
  3  4  2  0
  4  5  1  0
  5  6  2  0
  5  7  1  0
  7  8  2  0
  7  9  1  0
  9 10  2  0
 10 11  1  0
 11 12  2  0
 12 13  1  0
 13 14  2  0
 14 15  1  0
 12 16  1  0
 16 17  2  0
 16 18  1  0
 18 19  2  0
 19 20  1  0
 20 21  2  0
 21 22  1  0
 22 23  2  0
 23 24  1  0
  6  1  1  0
 15  4  1  0
 14  9  1  0
 24 11  1  0
 23 18  1  0
M  END
>  <name>  (764) 
5,12-dihydroquinolino[2,3-b]acridine-7,14-dione

>  <Outcome>  (764) 
2

>  <SMILES>  (764) 
O=c1c2ccccc2[nH]c2cc3c(=O)c4ccccc4[nH]c3cc12

$$$$

     RDKit          2D

  7  6  0  0  0  0  0  0  0  0999 V2000
    1.2611    2.2888    0.0000 C   0  0  0  0  0  0  0  0  0  0  0  0
    0.8486    1.5743    0.0000 C   0  0  0  0  0  0  0  0  0  0  0  0
    0.0236    1.5743    0.0000 C   0  0  0  0  0  0  0  0  0  0  0  0
    1.2611    0.8598    0.0000 N   0  0  0  0  0  0  0  0  0  0  0  0
    0.8486    0.1454    0.0000 C   0  0  0  0  0  0  0  0  0  0  0  0
    1.2611   -0.5691    0.0000 C   0  0  0  0  0  0  0  0  0  0  0  0
    0.0236    0.1454    0.0000 C   0  0  0  0  0  0  0  0  0  0  0  0
  1  2  1  0
  2  3  1  0
  2  4  1  0
  4  5  1  0
  5  6  1  0
  5  7  1  0
M  END
>  <name>  (765) 
bis(propan-2-yl)amine

>  <Outcome>  (765) 
1

>  <SMILES>  (765) 
CC(C)NC(C)C

$$$$

     RDKit          2D

 11 11  0  0  0  0  0  0  0  0999 V2000
    2.2576    0.8113    0.0000 F   0  0  0  0  0  0  0  0  0  0  0  0
    1.5432    0.3988    0.0000 C   0  0  0  0  0  0  0  0  0  0  0  0
    1.1307    1.1133    0.0000 F   0  0  0  0  0  0  0  0  0  0  0  0
    1.9557   -0.3157    0.0000 F   0  0  0  0  0  0  0  0  0  0  0  0
    0.8287   -0.0137    0.0000 C   0  0  0  0  0  0  0  0  0  0  0  0
    0.1142    0.3988    0.0000 C   0  0  0  0  0  0  0  0  0  0  0  0
   -0.6002   -0.0137    0.0000 C   0  0  0  0  0  0  0  0  0  0  0  0
   -0.6002   -0.8387    0.0000 C   0  0  0  0  0  0  0  0  0  0  0  0
   -1.3147   -1.2512    0.0000 Cl  0  0  0  0  0  0  0  0  0  0  0  0
    0.1142   -1.2512    0.0000 N   0  0  0  0  0  0  0  0  0  0  0  0
    0.8287   -0.8387    0.0000 C   0  0  0  0  0  0  0  0  0  0  0  0
  1  2  1  0
  2  3  1  0
  2  4  1  0
  2  5  1  0
  6  5  2  0
  7  6  1  0
  8  7  2  0
  8  9  1  0
 10  8  1  0
 11 10  2  0
  5 11  1  0
M  END
>  <name>  (766) 
Pyridine, 2-chloro-5-(trifluoromethyl)-

>  <Outcome>  (766) 
1

>  <SMILES>  (766) 
FC(F)(F)c1ccc(Cl)nc1

$$$$

     RDKit          2D

  7  6  0  0  0  0  0  0  0  0999 V2000
   -0.1915    0.7195    0.0000 O   0  0  0  0  0  0  0  0  0  0  0  0
    0.5230    1.1320    0.0000 C   0  0  0  0  0  0  0  0  0  0  0  0
    0.5230    1.9570    0.0000 O   0  0  0  0  0  0  0  0  0  0  0  0
    1.2375    0.7195    0.0000 C   0  0  0  0  0  0  0  0  0  0  0  0
    1.9520    1.1320    0.0000 N   0  0  0  0  0  0  0  0  0  0  0  0
    2.6664    0.7195    0.0000 C   0  0  0  0  0  0  0  0  0  0  0  0
    3.3809    1.1320    0.0000 O   0  0  0  0  0  0  0  0  0  0  0  0
  1  2  2  0
  2  3  1  0
  2  4  1  0
  4  5  1  0
  5  6  1  0
  6  7  1  0
M  END
>  <name>  (767) 
sodium 2-[(hydroxymethyl)amino]acetate

>  <Outcome>  (767) 
0

>  <SMILES>  (767) 
O=C(O)CNCO

$$$$

     RDKit          2D

 10 10  0  0  0  0  0  0  0  0999 V2000
    2.2107    0.1614    0.0000 C   0  0  0  0  0  0  0  0  0  0  0  0
    1.4962    0.5739    0.0000 N   0  0  0  0  0  0  0  0  0  0  0  0
    1.4962    1.3989    0.0000 C   0  0  0  0  0  0  0  0  0  0  0  0
    0.7817    0.1614    0.0000 C   0  0  0  0  0  0  0  0  0  0  0  0
    0.0673    0.5739    0.0000 C   0  0  0  0  0  0  0  0  0  0  0  0
   -0.6472    0.1614    0.0000 C   0  0  0  0  0  0  0  0  0  0  0  0
   -0.6472   -0.6636    0.0000 C   0  0  0  0  0  0  0  0  0  0  0  0
   -1.3617   -1.0761    0.0000 C   0  0  0  0  0  0  0  0  0  0  0  0
    0.0673   -1.0761    0.0000 C   0  0  0  0  0  0  0  0  0  0  0  0
    0.7817   -0.6636    0.0000 C   0  0  0  0  0  0  0  0  0  0  0  0
  1  2  1  0
  2  3  1  0
  2  4  1  0
  5  4  2  0
  6  5  1  0
  7  6  2  0
  7  8  1  0
  9  7  1  0
 10  9  2  0
  4 10  1  0
M  END
>  <name>  (768) 
N,N,4-Trimethylaniline

>  <Outcome>  (768) 
1

>  <SMILES>  (768) 
Cc1ccc(N(C)C)cc1

$$$$

     RDKit          2D

  9  8  0  0  0  0  0  0  0  0999 V2000
    1.7093    1.8790    0.0000 C   0  0  0  0  0  0  0  0  0  0  0  0
    2.4238    1.4665    0.0000 C   0  0  0  0  0  0  0  0  0  0  0  0
    3.1383    1.8790    0.0000 C   0  0  0  0  0  0  0  0  0  0  0  0
    3.1383    2.7040    0.0000 O   0  0  0  0  0  0  0  0  0  0  0  0
    3.8528    1.4665    0.0000 O   0  0  0  0  0  0  0  0  0  0  0  0
    4.5672    1.8790    0.0000 C   0  0  0  0  0  0  0  0  0  0  0  0
    5.2817    1.4665    0.0000 C   0  0  0  0  0  0  0  0  0  0  0  0
    5.9962    1.8790    0.0000 C   0  0  0  0  0  0  0  0  0  0  0  0
    5.2817    0.6415    0.0000 C   0  0  0  0  0  0  0  0  0  0  0  0
  1  2  2  0
  2  3  1  0
  3  4  2  0
  3  5  1  0
  5  6  1  0
  6  7  1  0
  7  8  1  0
  7  9  1  0
M  END
>  <name>  (769) 
2-methylpropyl prop-2-enoate

>  <Outcome>  (769) 
1

>  <SMILES>  (769) 
C=CC(=O)OCC(C)C

$$$$

     RDKit          2D

 27 26  0  0  0  0  0  0  0  0999 V2000
    9.2563    5.3925    0.0000 O   0  0  0  0  0  0  0  0  0  0  0  0
    8.5418    5.8050    0.0000 C   0  0  0  0  0  0  0  0  0  0  0  0
    8.5418    6.6300    0.0000 O   0  0  0  0  0  0  0  0  0  0  0  0
    7.8273    5.3925    0.0000 C   0  0  0  0  0  0  0  0  0  0  0  0
    7.8273    4.5675    0.0000 N   0  0  0  0  0  0  0  0  0  0  0  0
    7.1128    4.1550    0.0000 C   0  0  0  0  0  0  0  0  0  0  0  0
    6.3984    4.5675    0.0000 C   0  0  0  0  0  0  0  0  0  0  0  0
    5.6839    4.1550    0.0000 N   0  0  0  0  0  0  0  0  0  0  0  0
    4.9694    4.5675    0.0000 C   0  0  0  0  0  0  0  0  0  0  0  0
    4.9694    5.3925    0.0000 C   0  0  0  0  0  0  0  0  0  0  0  0
    5.6839    5.8050    0.0000 O   0  0  0  0  0  0  0  0  0  0  0  0
    4.2550    5.8050    0.0000 O   0  0  0  0  0  0  0  0  0  0  0  0
    5.6839    3.3300    0.0000 C   0  0  0  0  0  0  0  0  0  0  0  0
    4.9694    2.9175    0.0000 C   0  0  0  0  0  0  0  0  0  0  0  0
    4.2550    3.3300    0.0000 O   0  0  0  0  0  0  0  0  0  0  0  0
    4.9694    2.0925    0.0000 O   0  0  0  0  0  0  0  0  0  0  0  0
    8.5418    4.1550    0.0000 C   0  0  0  0  0  0  0  0  0  0  0  0
    9.2563    4.5675    0.0000 C   0  0  0  0  0  0  0  0  0  0  0  0
    9.9707    4.1550    0.0000 N   0  0  0  0  0  0  0  0  0  0  0  0
   10.6852    4.5675    0.0000 C   0  0  0  0  0  0  0  0  0  0  0  0
   10.6852    5.3925    0.0000 C   0  0  0  0  0  0  0  0  0  0  0  0
    9.9707    5.8050    0.0000 O   0  0  0  0  0  0  0  0  0  0  0  0
   11.3997    5.8050    0.0000 O   0  0  0  0  0  0  0  0  0  0  0  0
    9.9707    3.3300    0.0000 C   0  0  0  0  0  0  0  0  0  0  0  0
   10.6852    2.9175    0.0000 C   0  0  0  0  0  0  0  0  0  0  0  0
   11.3997    3.3300    0.0000 O   0  0  0  0  0  0  0  0  0  0  0  0
   10.6852    2.0925    0.0000 O   0  0  0  0  0  0  0  0  0  0  0  0
  1  2  2  0
  2  3  1  0
  2  4  1  0
  4  5  1  0
  5  6  1  0
  6  7  1  0
  7  8  1  0
  8  9  1  0
  9 10  1  0
 10 11  2  0
 10 12  1  0
  8 13  1  0
 13 14  1  0
 14 15  2  0
 14 16  1  0
  5 17  1  0
 17 18  1  0
 18 19  1  0
 19 20  1  0
 20 21  1  0
 21 22  2  0
 21 23  1  0
 19 24  1  0
 24 25  1  0
 25 26  2  0
 25 27  1  0
M  END
>  <name>  (770) 
iron(3+) ion sodium 2-{[2-({2-[bis(carboxylatomethyl)amino]ethyl}(carboxylatomethyl)amino)ethyl](carboxymethyl)amino}acetate

>  <Outcome>  (770) 
0

>  <SMILES>  (770) 
O=C(O)CN(CCN(CC(=O)O)CC(=O)O)CCN(CC(=O)O)CC(=O)O

$$$$

     RDKit          2D

  8  6  0  0  0  0  0  0  0  0999 V2000
    0.0000    0.0000    0.0000 C   0  0  0  0  0  0  0  0  0  0  0  0
    1.2990    0.7500    0.0000 C   0  0  0  0  0  0  0  0  0  0  0  0
    1.2990    2.2500    0.0000 O   0  0  0  0  0  0  0  0  0  0  0  0
    2.5981   -0.0000    0.0000 O   0  0  0  0  0  1  0  0  0  0  0  0
   -1.2990    0.7500    0.0000 N   0  0  0  0  0  0  0  0  0  0  0  0
   -2.5981    0.0000    0.0000 C   0  0  0  0  0  0  0  0  0  0  0  0
   -3.8971    0.7500    0.0000 O   0  0  0  0  0  0  0  0  0  0  0  0
    0.0000    3.2500    0.0000 Na  0  0  0  0  0 15  0  0  0  0  0  0
  1  2  1  0
  2  3  2  0
  2  4  1  0
  1  5  1  0
  5  6  1  0
  6  7  1  0
M  CHG  2   4  -1   8   1
M  END
>  <name>  (771) 
sodium;2-(hydroxymethylamino)acetate

>  <Outcome>  (771) 
2

>  <SMILES>  (771) 
O=C([O-])CNCO.[Na+]

$$$$

     RDKit          2D

  9  8  0  0  0  0  0  0  0  0999 V2000
    0.0000    0.0000    0.0000 C   0  0  0  0  0  0  0  0  0  0  0  0
    1.2990    0.7500    0.0000 C   0  0  0  0  0  0  0  0  0  0  0  0
    2.5981   -0.0000    0.0000 C   0  0  0  0  0  0  0  0  0  0  0  0
    3.8971    0.7500    0.0000 N   0  0  0  0  0  0  0  0  0  0  0  0
    5.1962   -0.0000    0.0000 C   0  0  0  0  0  0  0  0  0  0  0  0
    6.4952    0.7500    0.0000 C   0  0  0  0  0  0  0  0  0  0  0  0
    7.7942   -0.0000    0.0000 C   0  0  0  0  0  0  0  0  0  0  0  0
    6.4952    2.2500    0.0000 O   0  0  0  0  0  0  0  0  0  0  0  0
    1.2990    2.2500    0.0000 O   0  0  0  0  0  0  0  0  0  0  0  0
  1  2  1  0
  2  3  1  0
  3  4  1  0
  4  5  1  0
  5  6  1  0
  6  7  1  0
  6  8  1  0
  2  9  1  0
M  END
>  <name>  (772) 
1-(2-hydroxypropylamino)propan-2-ol

>  <Outcome>  (772) 
2

>  <SMILES>  (772) 
CC(O)CNCC(C)O

$$$$

     RDKit          2D

 11 11  0  0  0  0  0  0  0  0999 V2000
   -0.3297   -0.8227    0.0000 Cl  0  0  0  0  0  0  0  0  0  0  0  0
    0.1553   -0.1553    0.0000 C   0  0  0  0  0  0  0  0  0  0  0  0
   -0.0997    0.6294    0.0000 C   0  0  0  0  0  0  0  0  0  0  0  0
   -0.8843    0.8843    0.0000 Cl  0  0  0  0  0  0  0  0  0  0  0  0
    0.5678    1.1143    0.0000 C   0  0  0  0  0  0  0  0  0  0  0  0
    0.0157    1.7274    0.0000 Cl  0  0  0  0  0  0  0  0  0  0  0  0
    1.1198    1.7274    0.0000 Cl  0  0  0  0  0  0  0  0  0  0  0  0
    1.2352    0.6294    0.0000 C   0  0  0  0  0  0  0  0  0  0  0  0
    2.0198    0.8843    0.0000 Cl  0  0  0  0  0  0  0  0  0  0  0  0
    0.9803   -0.1553    0.0000 C   0  0  0  0  0  0  0  0  0  0  0  0
    1.4652   -0.8227    0.0000 Cl  0  0  0  0  0  0  0  0  0  0  0  0
  1  2  1  0
  2  3  2  0
  3  4  1  0
  3  5  1  0
  5  6  1  0
  5  7  1  0
  5  8  1  0
  8  9  1  0
  8 10  2  0
  2 10  1  0
 10 11  1  0
M  END
>  <name>  (773) 
hexachlorocyclopenta-1,3-diene

>  <Outcome>  (773) 
1

>  <SMILES>  (773) 
ClC1=C(Cl)C(Cl)(Cl)C(Cl)=C1Cl

$$$$

     RDKit          2D

  9  9  0  0  0  0  0  0  0  0999 V2000
    0.0097    2.4516    0.0000 C   0  0  0  0  0  0  0  0  0  0  0  0
    0.7241    2.0391    0.0000 O   0  0  0  0  0  0  0  0  0  0  0  0
    0.7241    1.2141    0.0000 C   0  0  0  0  0  0  0  0  0  0  0  0
    1.4386    0.8016    0.0000 C   0  0  0  0  0  0  0  0  0  0  0  0
    1.4386   -0.0234    0.0000 C   0  0  0  0  0  0  0  0  0  0  0  0
    0.7241   -0.4359    0.0000 C   0  0  0  0  0  0  0  0  0  0  0  0
    0.0097   -0.0234    0.0000 C   0  0  0  0  0  0  0  0  0  0  0  0
    0.0097    0.8016    0.0000 C   0  0  0  0  0  0  0  0  0  0  0  0
   -0.7048    1.2141    0.0000 O   0  0  0  0  0  0  0  0  0  0  0  0
  1  2  1  0
  2  3  1  0
  3  4  2  0
  4  5  1  0
  5  6  2  0
  6  7  1  0
  7  8  2  0
  3  8  1  0
  8  9  1  0
M  END
>  <name>  (774) 
2-methoxyphenol

>  <Outcome>  (774) 
1

>  <SMILES>  (774) 
COc1ccccc1O

$$$$

     RDKit          2D

  8  7  0  0  0  0  0  0  0  0999 V2000
   -0.2604    0.7129    0.0000 C   0  0  0  0  0  0  0  0  0  0  0  0
    0.4541    1.1254    0.0000 C   0  0  0  0  0  0  0  0  0  0  0  0
    1.1686    0.7129    0.0000 C   0  0  0  0  0  0  0  0  0  0  0  0
    1.1686   -0.1121    0.0000 C   0  0  0  0  0  0  0  0  0  0  0  0
    1.8831    1.1254    0.0000 O   0  0  0  0  0  0  0  0  0  0  0  0
    2.5975    0.7129    0.0000 C   0  0  0  0  0  0  0  0  0  0  0  0
    3.3120    1.1254    0.0000 O   0  0  0  0  0  0  0  0  0  0  0  0
    2.5975   -0.1121    0.0000 Cl  0  0  0  0  0  0  0  0  0  0  0  0
  1  2  1  0
  2  3  1  0
  3  4  1  0
  3  5  1  0
  5  6  1  0
  6  7  2  0
  6  8  1  0
M  END
>  <name>  (775) 
sec-butyl chlorocarbonate

>  <Outcome>  (775) 
1

>  <SMILES>  (775) 
CCC(C)OC(=O)Cl

$$$$

     RDKit          2D

  7  6  0  0  0  0  0  0  0  0999 V2000
   -0.1914    0.7123    0.0000 C   0  0  0  0  0  0  0  0  0  0  0  0
    0.5230    1.1248    0.0000 C   0  0  0  0  0  0  0  0  0  0  0  0
    1.2375    0.7123    0.0000 C   0  0  0  0  0  0  0  0  0  0  0  0
    1.9520    1.1248    0.0000 C   0  0  0  0  0  0  0  0  0  0  0  0
    2.6664    0.7123    0.0000 C   0  0  0  0  0  0  0  0  0  0  0  0
    3.3809    1.1248    0.0000 O   0  0  0  0  0  0  0  0  0  0  0  0
    2.6664   -0.1127    0.0000 Cl  0  0  0  0  0  0  0  0  0  0  0  0
  1  2  1  0
  2  3  1  0
  3  4  1  0
  4  5  1  0
  5  6  2  0
  5  7  1  0
M  END
>  <name>  (776) 
pentanoyl chloride

>  <Outcome>  (776) 
1

>  <SMILES>  (776) 
CCCCC(=O)Cl

$$$$

     RDKit          2D

 11  6  0  0  0  0  0  0  0  0999 V2000
    0.0000    0.0000    0.0000 C   0  0  0  0  0  0  0  0  0  0  0  0
   -0.0000   -1.5000    0.0000 O   0  0  0  0  0  0  0  0  0  0  0  0
   -1.2990    0.7500    0.0000 O   0  0  0  0  0  0  0  0  0  0  0  0
    1.2990    0.7500    0.0000 O   0  0  0  0  0  1  0  0  0  0  0  0
    0.0000    3.2500    0.0000 C   0  0  0  0  0  0  0  0  0  0  0  0
   -0.0000    1.7500    0.0000 O   0  0  0  0  0  0  0  0  0  0  0  0
    1.2990    4.0000    0.0000 O   0  0  0  0  0  1  0  0  0  0  0  0
   -1.2990    4.0000    0.0000 O   0  0  0  0  0  1  0  0  0  0  0  0
    2.2990    0.0000    0.0000 Na  0  0  0  0  0 15  0  0  0  0  0  0
    3.2990    0.0000    0.0000 Na  0  0  0  0  0 15  0  0  0  0  0  0
    4.2990    0.0000    0.0000 Na  0  0  0  0  0 15  0  0  0  0  0  0
  1  2  2  0
  1  3  1  0
  1  4  1  0
  5  6  2  0
  5  7  1  0
  5  8  1  0
M  CHG  6   4  -1   7  -1   8  -1   9   1  10   1  11   1
M  END
>  <name>  (777) 
trisodium;hydrogen carbonate;carbonate

>  <Outcome>  (777) 
2

>  <SMILES>  (777) 
O=C([O-])O.O=C([O-])[O-].[Na+].[Na+].[Na+]

$$$$

     RDKit          2D

 13 13  0  0  0  0  0  0  0  0999 V2000
    3.0000    0.0000    0.0000 C   0  0  0  0  0  0  0  0  0  0  0  0
    1.5000    0.0000    0.0000 C   0  0  0  0  0  0  0  0  0  0  0  0
    0.7500   -1.2990    0.0000 C   0  0  0  0  0  0  0  0  0  0  0  0
   -0.7500   -1.2990    0.0000 C   0  0  0  0  0  0  0  0  0  0  0  0
   -1.5000    0.0000    0.0000 C   0  0  0  0  0  0  0  0  0  0  0  0
   -0.7500    1.2990    0.0000 C   0  0  0  0  0  0  0  0  0  0  0  0
    0.7500    1.2990    0.0000 C   0  0  0  0  0  0  0  0  0  0  0  0
   -1.5000    2.5981    0.0000 Cl  0  0  0  0  0  0  0  0  0  0  0  0
    1.5000   -2.5981    0.0000 O   0  0  0  0  0  0  0  0  0  0  0  0
    0.7500   -3.8971    0.0000 C   0  0  0  0  0  0  0  0  0  0  0  0
    1.5000   -5.1962    0.0000 C   0  0  0  0  0  0  0  0  0  0  0  0
    3.0000   -5.1962    0.0000 O   0  0  0  0  0  0  0  0  0  0  0  0
    0.7500   -6.4952    0.0000 O   0  0  0  0  0  0  0  0  0  0  0  0
  1  2  1  0
  2  3  2  0
  3  4  1  0
  4  5  2  0
  5  6  1  0
  6  7  2  0
  6  8  1  0
  3  9  1  0
  9 10  1  0
 10 11  1  0
 11 12  2  0
 11 13  1  0
  7  2  1  0
M  END
>  <name>  (778) 
2-(4-chloro-2-methylphenoxy)acetic acid

>  <Outcome>  (778) 
2

>  <SMILES>  (778) 
Cc1cc(Cl)ccc1OCC(=O)O

$$$$

     RDKit          2D

  5  4  0  0  0  0  0  0  0  0999 V2000
    0.0000    0.0000    0.0000 C   0  0  0  0  0  0  0  0  0  0  0  0
    1.2990    0.7500    0.0000 Si  0  0  0  0  0  4  0  0  0  0  0  0
    2.5981    1.5000    0.0000 C   0  0  0  0  0  0  0  0  0  0  0  0
    2.0490   -0.5490    0.0000 Cl  0  0  0  0  0  0  0  0  0  0  0  0
    0.5490    2.0490    0.0000 Cl  0  0  0  0  0  0  0  0  0  0  0  0
  1  2  1  0
  2  3  1  0
  2  4  1  0
  2  5  1  0
M  END
>  <name>  (779) 
dichloro(dimethyl)silane

>  <Outcome>  (779) 
2

>  <SMILES>  (779) 
C[Si](C)(Cl)Cl

$$$$

     RDKit          2D

 12 11  0  0  0  0  0  0  0  0999 V2000
    1.0461    0.2211    0.0000 O   0  0  0  0  0  0  0  0  0  0  0  0
    1.0461   -0.6039    0.0000 C   0  0  0  0  0  0  0  0  0  0  0  0
    1.0461   -1.4289    0.0000 N   0  0  0  0  0  0  0  0  0  0  0  0
    1.7605   -1.8414    0.0000 C   0  0  0  0  0  0  0  0  0  0  0  0
    2.4750   -1.4289    0.0000 C   0  0  0  0  0  0  0  0  0  0  0  0
    3.1895   -1.8414    0.0000 C   0  0  0  0  0  0  0  0  0  0  0  0
    3.9039   -1.4289    0.0000 C   0  0  0  0  0  0  0  0  0  0  0  0
    4.6184   -1.8414    0.0000 C   0  0  0  0  0  0  0  0  0  0  0  0
    5.3329   -1.4289    0.0000 C   0  0  0  0  0  0  0  0  0  0  0  0
    6.0474   -1.8414    0.0000 N   0  0  0  0  0  0  0  0  0  0  0  0
    6.7618   -1.4289    0.0000 C   0  0  0  0  0  0  0  0  0  0  0  0
    7.4763   -1.0164    0.0000 O   0  0  0  0  0  0  0  0  0  0  0  0
  1  2  2  0
  2  3  2  0
  3  4  1  0
  4  5  1  0
  5  6  1  0
  6  7  1  0
  7  8  1  0
  8  9  1  0
  9 10  1  0
 10 11  2  0
 11 12  2  0
M  END
>  <name>  (780) 
1,6-diisocyanatohexane

>  <Outcome>  (780) 
1

>  <SMILES>  (780) 
O=C=NCCCCCCN=C=O

$$$$

     RDKit          2D

  6  6  0  0  0  0  0  0  0  0999 V2000
    0.8660    0.0000    0.0000 C   0  0  0  0  0  0  0  0  0  0  0  0
   -0.4330    0.7500    0.0000 C   0  0  0  0  0  0  0  0  0  0  0  0
   -0.4330   -0.7500    0.0000 O   0  0  0  0  0  0  0  0  0  0  0  0
   -1.1830    2.0490    0.0000 C   0  0  0  0  0  0  0  0  0  0  0  0
   -2.6830    2.0490    0.0000 O   0  0  0  0  0  0  0  0  0  0  0  0
   -0.4330    3.3481    0.0000 N   0  0  0  0  0  0  0  0  0  0  0  0
  1  2  1  0
  2  3  1  0
  2  4  1  0
  4  5  2  0
  4  6  1  0
  3  1  1  0
M  END
>  <name>  (781) 
oxirane-2-carboxamide

>  <Outcome>  (781) 
2

>  <SMILES>  (781) 
NC(=O)C1CO1

$$$$

     RDKit          2D

  8  7  0  0  0  0  0  0  0  0999 V2000
    1.6279   -1.8058    0.0000 C   0  0  0  0  0  0  0  0  0  0  0  0
    2.3424   -1.3933    0.0000 S   0  0  0  0  0  0  0  0  0  0  0  0
    3.0569   -1.8058    0.0000 C   0  0  0  0  0  0  0  0  0  0  0  0
    3.7713   -1.3933    0.0000 C   0  0  0  0  0  0  0  0  0  0  0  0
    4.4858   -1.8058    0.0000 C   0  0  0  0  0  0  0  0  0  0  0  0
    4.4858   -2.6308    0.0000 O   0  0  0  0  0  0  0  0  0  0  0  0
    5.2003   -1.3933    0.0000 C   0  0  0  0  0  0  0  0  0  0  0  0
    5.9148   -0.9808    0.0000 N   0  0  0  0  0  0  0  0  0  0  0  0
  1  2  1  0
  2  3  1  0
  3  4  1  0
  4  5  1  0
  5  6  1  0
  5  7  1  0
  7  8  3  0
M  END
>  <name>  (782) 
2-hydroxy-4-(methylsulfanyl)butanenitrile

>  <Outcome>  (782) 
1

>  <SMILES>  (782) 
CSCCC(O)C#N

$$$$

     RDKit          2D

  5  4  0  0  0  0  0  0  0  0999 V2000
    0.0000    0.0000    0.0000 C   0  0  0  0  0  0  0  0  0  0  0  0
    1.2990    0.7500    0.0000 C   0  0  0  0  0  0  0  0  0  0  0  0
    2.5981   -0.0000    0.0000 N   0  0  0  0  0  0  0  0  0  0  0  0
    3.8971    0.7500    0.0000 C   0  0  0  0  0  0  0  0  0  0  0  0
    2.5981   -1.5000    0.0000 C   0  0  0  0  0  0  0  0  0  0  0  0
  1  2  1  0
  2  3  1  0
  3  4  1  0
  3  5  1  0
M  END
>  <name>  (783) 
N,N-dimethylethanamine

>  <Outcome>  (783) 
2

>  <SMILES>  (783) 
CCN(C)C

$$$$

     RDKit          2D

 14 15  0  0  0  0  0  0  0  0999 V2000
    0.7145   -0.4125    0.0000 N   0  0  0  0  0  0  0  0  0  0  0  0
    0.7145   -1.2375    0.0000 C   0  0  0  0  0  0  0  0  0  0  0  0
    1.4290   -1.6500    0.0000 N   0  0  0  0  0  0  0  0  0  0  0  0
    1.4290   -2.4750    0.0000 C   0  0  0  0  0  0  0  0  0  0  0  0
    2.1434   -2.8875    0.0000 N   0  0  0  0  0  0  0  0  0  0  0  0
    0.7145   -2.8875    0.0000 N   0  0  0  0  0  0  0  0  0  0  0  0
    0.0000   -2.4750    0.0000 C   0  0  0  0  0  0  0  0  0  0  0  0
   -0.7145   -2.8875    0.0000 C   0  0  0  0  0  0  0  0  0  0  0  0
   -0.7145   -3.7125    0.0000 C   0  0  0  0  0  0  0  0  0  0  0  0
   -1.4289   -4.1250    0.0000 C   0  0  0  0  0  0  0  0  0  0  0  0
   -2.1434   -3.7125    0.0000 C   0  0  0  0  0  0  0  0  0  0  0  0
   -2.1434   -2.8875    0.0000 C   0  0  0  0  0  0  0  0  0  0  0  0
   -1.4289   -2.4750    0.0000 C   0  0  0  0  0  0  0  0  0  0  0  0
    0.0000   -1.6500    0.0000 N   0  0  0  0  0  0  0  0  0  0  0  0
  1  2  1  0
  2  3  2  0
  3  4  1  0
  4  5  1  0
  4  6  2  0
  6  7  1  0
  7  8  1  0
  8  9  2  0
  9 10  1  0
 10 11  2  0
 11 12  1  0
 12 13  2  0
  8 13  1  0
  7 14  2  0
  2 14  1  0
M  END
>  <name>  (784) 
6-phenyl-1,3,5-triazine-2,4-diamine

>  <Outcome>  (784) 
1

>  <SMILES>  (784) 
Nc1nc(N)nc(-c2ccccc2)n1

$$$$

     RDKit          2D

  5  3  0  0  0  0  0  0  0  0999 V2000
    0.0000    0.0000    0.0000 O   0  0  0  0  0  1  0  0  0  0  0  0
    1.2990    0.7500    0.0000 S   0  0  0  0  0  0  0  0  0  0  0  0
    1.2990    2.2500    0.0000 O   0  0  0  0  0  0  0  0  0  0  0  0
    2.5981   -0.0000    0.0000 O   0  0  0  0  0  1  0  0  0  0  0  0
    0.0000    3.2500    0.0000 Ni  0  0  0  0  0 15  0  0  0  0  0  0
  1  2  1  0
  2  3  2  0
  2  4  1  0
M  CHG  3   1  -1   4  -1   5   2
M  END
>  <name>  (785) 
nickel(2+);sulfite

>  <Outcome>  (785) 
2

>  <SMILES>  (785) 
O=S([O-])[O-].[Ni+2]

$$$$

     RDKit          2D

  5  4  0  0  0  0  0  0  0  0999 V2000
    1.0875    0.1949    0.0000 C   0  0  0  0  0  0  0  0  0  0  0  0
    0.6750   -0.5196    0.0000 C   0  0  0  0  0  0  0  0  0  0  0  0
   -0.1500   -0.5196    0.0000 C   0  0  0  0  0  0  0  0  0  0  0  0
   -0.5625   -1.2341    0.0000 C   0  0  0  0  0  0  0  0  0  0  0  0
   -0.1500   -1.9485    0.0000 O   0  0  0  0  0  0  0  0  0  0  0  0
  2  1  1  0
  2  3  2  3
  3  4  1  0
  4  5  2  0
M  END
>  <name>  (786) 
Crotonaldehyde

>  <Outcome>  (786) 
1

>  <SMILES>  (786) 
CC=CC=O

$$$$

     RDKit          2D

  8  7  0  0  0  0  0  0  0  0999 V2000
    1.0461    1.4289    0.0000 C   0  0  0  0  0  0  0  0  0  0  0  0
    1.7605    1.8414    0.0000 C   0  0  0  0  0  0  0  0  0  0  0  0
    2.4750    1.4289    0.0000 C   0  0  0  0  0  0  0  0  0  0  0  0
    3.1895    1.8414    0.0000 C   0  0  0  0  0  0  0  0  0  0  0  0
    3.9039    1.4289    0.0000 C   0  0  0  0  0  0  0  0  0  0  0  0
    4.6184    1.8414    0.0000 C   0  0  0  0  0  0  0  0  0  0  0  0
    5.3329    1.4289    0.0000 C   0  0  0  0  0  0  0  0  0  0  0  0
    6.0474    1.8414    0.0000 C   0  0  0  0  0  0  0  0  0  0  0  0
  1  2  2  0
  2  3  1  0
  3  4  1  0
  4  5  1  0
  5  6  1  0
  6  7  1  0
  7  8  2  0
M  END
>  <name>  (787) 
octa-1,7-diene

>  <Outcome>  (787) 
0

>  <SMILES>  (787) 
C=CCCCCC=C

$$$$

     RDKit          2D

 11 10  0  0  0  0  0  0  0  0999 V2000
   -0.0216    0.4268    0.0000 C   0  0  0  0  0  0  0  0  0  0  0  0
    0.6929    0.0143    0.0000 C   0  0  0  0  0  0  0  0  0  0  0  0
    1.4074    0.4268    0.0000 C   0  0  0  0  0  0  0  0  0  0  0  0
    2.1218    0.0143    0.0000 C   0  0  0  0  0  0  0  0  0  0  0  0
    2.8363    0.4268    0.0000 C   0  0  0  0  0  0  0  0  0  0  0  0
    3.5508    0.0143    0.0000 C   0  0  0  0  0  0  0  0  0  0  0  0
    4.2652    0.4268    0.0000 C   0  0  0  0  0  0  0  0  0  0  0  0
    4.9797    0.0143    0.0000 C   0  0  0  0  0  0  0  0  0  0  0  0
    5.6942    0.4268    0.0000 C   0  0  0  0  0  0  0  0  0  0  0  0
    6.4087    0.0143    0.0000 C   0  0  0  0  0  0  0  0  0  0  0  0
    7.1231    0.4268    0.0000 O   0  0  0  0  0  0  0  0  0  0  0  0
  1  2  1  0
  2  3  1  0
  3  4  1  0
  4  5  1  0
  5  6  1  0
  6  7  1  0
  7  8  1  0
  8  9  1  0
  9 10  1  0
 10 11  1  0
M  END
>  <name>  (788) 
1-Decanol

>  <Outcome>  (788) 
0

>  <SMILES>  (788) 
CCCCCCCCCCO

$$$$

     RDKit          2D

  8  8  0  0  0  0  0  0  0  0999 V2000
    3.0000    0.0000    0.0000 C   0  0  0  0  0  0  0  0  0  0  0  0
    1.5000    0.0000    0.0000 C   0  0  0  0  0  0  0  0  0  0  0  0
    0.7500   -1.2990    0.0000 C   0  0  0  0  0  0  0  0  0  0  0  0
   -0.7500   -1.2990    0.0000 C   0  0  0  0  0  0  0  0  0  0  0  0
   -1.5000    0.0000    0.0000 C   0  0  0  0  0  0  0  0  0  0  0  0
   -0.7500    1.2990    0.0000 C   0  0  0  0  0  0  0  0  0  0  0  0
    0.7500    1.2990    0.0000 C   0  0  0  0  0  0  0  0  0  0  0  0
    1.5000    2.5981    0.0000 N   0  0  0  0  0  0  0  0  0  0  0  0
  1  2  1  0
  2  3  2  0
  3  4  1  0
  4  5  2  0
  5  6  1  0
  6  7  2  0
  7  8  1  0
  7  2  1  0
M  END
>  <name>  (789) 
2-methylaniline

>  <Outcome>  (789) 
2

>  <SMILES>  (789) 
Cc1ccccc1N

$$$$

     RDKit          2D

  6  5  0  0  0  0  0  0  0  0999 V2000
    0.1669   -0.9663    0.0000 C   0  0  0  0  0  0  0  0  0  0  0  0
    0.8814   -0.5538    0.0000 C   0  0  0  0  0  0  0  0  0  0  0  0
    0.8814    0.2712    0.0000 C   0  0  0  0  0  0  0  0  0  0  0  0
    0.8814    1.0962    0.0000 C   0  0  0  0  0  0  0  0  0  0  0  0
    1.7064    0.2712    0.0000 C   0  0  0  0  0  0  0  0  0  0  0  0
    0.0564    0.2712    0.0000 O   0  0  0  0  0  0  0  0  0  0  0  0
  1  2  2  0
  2  3  1  0
  3  4  1  0
  3  5  1  0
  3  6  1  0
M  END
>  <name>  (790) 
2-methylbut-3-en-2-ol

>  <Outcome>  (790) 
0

>  <SMILES>  (790) 
C=CC(C)(C)O

$$$$

     RDKit          2D

 20 19  0  0  0  0  0  0  0  0999 V2000
   -0.7886   -0.9046    0.0000 C   0  0  0  0  0  0  0  0  0  0  0  0
   -0.0741   -1.3171    0.0000 C   0  0  0  0  0  0  0  0  0  0  0  0
    0.6404   -0.9046    0.0000 C   0  0  0  0  0  0  0  0  0  0  0  0
    1.3549   -1.3171    0.0000 C   0  0  0  0  0  0  0  0  0  0  0  0
    2.0693   -0.9046    0.0000 C   0  0  0  0  0  0  0  0  0  0  0  0
    2.7838   -1.3171    0.0000 C   0  0  0  0  0  0  0  0  0  0  0  0
    3.4983   -0.9046    0.0000 C   0  0  0  0  0  0  0  0  0  0  0  0
    4.2127   -1.3171    0.0000 C   0  0  0  0  0  0  0  0  0  0  0  0
    4.9272   -0.9046    0.0000 C   0  0  0  0  0  0  0  0  0  0  0  0
    5.6417   -1.3171    0.0000 C   0  0  0  0  0  0  0  0  0  0  0  0
    6.3561   -0.9046    0.0000 C   0  0  0  0  0  0  0  0  0  0  0  0
    6.3561   -0.0796    0.0000 C   0  0  0  0  0  0  0  0  0  0  0  0
    7.0706   -1.3171    0.0000 C   0  0  0  0  0  0  0  0  0  0  0  0
    7.7851   -0.9046    0.0000 C   0  0  0  0  0  0  0  0  0  0  0  0
    8.4996   -1.3171    0.0000 C   0  0  0  0  0  0  0  0  0  0  0  0
    9.2140   -0.9046    0.0000 C   0  0  0  0  0  0  0  0  0  0  0  0
    9.9285   -1.3171    0.0000 C   0  0  0  0  0  0  0  0  0  0  0  0
   10.6430   -0.9046    0.0000 C   0  0  0  0  0  0  0  0  0  0  0  0
   11.3574   -1.3171    0.0000 C   0  0  0  0  0  0  0  0  0  0  0  0
   12.0719   -0.9046    0.0000 C   0  0  0  0  0  0  0  0  0  0  0  0
  1  2  1  0
  2  3  1  0
  3  4  1  0
  4  5  1  0
  5  6  1  0
  6  7  1  0
  7  8  1  0
  8  9  1  0
  9 10  1  0
 10 11  1  0
 11 12  1  0
 11 13  1  0
 13 14  1  0
 14 15  1  0
 15 16  1  0
 16 17  1  0
 17 18  1  0
 18 19  1  0
 19 20  1  0
M  END
>  <name>  (791) 
1-Decene, dimer

>  <Outcome>  (791) 
1

>  <SMILES>  (791) 
CCCCCCCCCCC(C)CCCCCCCC

$$$$

     RDKit          2D

 14 14  0  0  0  0  0  0  0  0999 V2000
   -0.7776    3.7519    0.0000 C   0  0  0  0  0  0  0  0  0  0  0  0
   -0.0631    3.3394    0.0000 C   0  0  0  0  0  0  0  0  0  0  0  0
   -0.0631    2.5144    0.0000 O   0  0  0  0  0  0  0  0  0  0  0  0
    0.6514    2.1019    0.0000 C   0  0  0  0  0  0  0  0  0  0  0  0
    0.6514    1.2769    0.0000 C   0  0  0  0  0  0  0  0  0  0  0  0
    1.3658    0.8644    0.0000 C   0  0  0  0  0  0  0  0  0  0  0  0
    1.3658    0.0394    0.0000 C   0  0  0  0  0  0  0  0  0  0  0  0
    0.6514   -0.3731    0.0000 C   0  0  0  0  0  0  0  0  0  0  0  0
    0.6514   -1.1981    0.0000 C   0  0  0  0  0  0  0  0  0  0  0  0
    1.3658   -1.6106    0.0000 O   0  0  0  0  0  0  0  0  0  0  0  0
    1.3658   -2.4356    0.0000 C   0  0  0  0  0  0  0  0  0  0  0  0
    2.0803   -2.8481    0.0000 C   0  0  0  0  0  0  0  0  0  0  0  0
   -0.0631    0.0394    0.0000 C   0  0  0  0  0  0  0  0  0  0  0  0
   -0.0631    0.8644    0.0000 C   0  0  0  0  0  0  0  0  0  0  0  0
  1  2  1  0
  2  3  1  0
  3  4  1  0
  4  5  1  0
  5  6  1  0
  6  7  1  0
  7  8  1  0
  8  9  1  0
  9 10  1  0
 10 11  1  0
 11 12  1  0
  8 13  1  0
 13 14  1  0
  5 14  1  0
M  END
>  <name>  (792) 
(1r,4r)-1,4-bis(ethoxymethyl)cyclohexane; (1s,4s)-1,4-bis(ethoxymethyl)cyclohexane

>  <Outcome>  (792) 
0

>  <SMILES>  (792) 
CCOCC1CCC(COCC)CC1

$$$$

     RDKit          2D

  6  5  0  0  0  0  0  0  0  0999 V2000
    0.8250    1.4289    0.0000 C   0  0  0  0  0  0  0  0  0  0  0  0
    1.2375    0.7145    0.0000 C   0  0  0  0  0  0  0  0  0  0  0  0
    2.0625    0.7145    0.0000 Cl  0  0  0  0  0  0  0  0  0  0  0  0
    0.8250   -0.0000    0.0000 C   0  0  0  0  0  0  0  0  0  0  0  0
    1.2375   -0.7145    0.0000 C   0  0  0  0  0  0  0  0  0  0  0  0
   -0.0000   -0.0000    0.0000 Cl  0  0  0  0  0  0  0  0  0  0  0  0
  1  2  2  0
  2  3  1  0
  2  4  1  0
  4  5  2  0
  4  6  1  0
M  END
>  <name>  (793) 
2,3-dichlorobuta-1,3-diene

>  <Outcome>  (793) 
1

>  <SMILES>  (793) 
C=C(Cl)C(=C)Cl

$$$$

     RDKit          2D

  9  8  0  0  0  0  0  0  0  0999 V2000
    3.3903    0.3007    0.0000 C   0  0  0  0  0  0  0  0  0  0  0  0
    2.6758    0.7132    0.0000 C   0  0  0  0  0  0  0  0  0  0  0  0
    1.9613    0.3007    0.0000 C   0  0  0  0  0  0  0  0  0  0  0  0
    1.2468    0.7132    0.0000 P   0  0  0  0  0  0  0  0  0  0  0  0
    1.6593    1.4276    0.0000 O   0  0  0  0  0  0  0  0  0  0  0  0
    0.5324    1.1257    0.0000 O   0  0  0  0  0  0  0  0  0  0  0  0
   -0.1821    0.7132    0.0000 C   0  0  0  0  0  0  0  0  0  0  0  0
    0.8343   -0.0013    0.0000 O   0  0  0  0  0  0  0  0  0  0  0  0
    0.0093   -0.0013    0.0000 C   0  0  0  0  0  0  0  0  0  0  0  0
  1  2  1  0
  2  3  1  0
  3  4  1  0
  4  5  2  0
  4  6  1  0
  6  7  1  0
  4  8  1  0
  8  9  1  0
M  END
>  <name>  (794) 
dimethyl propylphosphonate

>  <Outcome>  (794) 
0

>  <SMILES>  (794) 
CCCP(=O)(OC)OC

$$$$

     RDKit          2D

  8  8  0  0  0  0  0  0  0  0999 V2000
    1.5000    0.0000    0.0000 C   0  0  0  0  0  0  0  0  0  0  0  0
    0.7500   -1.2990    0.0000 C   0  0  0  0  0  0  0  0  0  0  0  0
   -0.7500   -1.2990    0.0000 C   0  0  0  0  0  0  0  0  0  0  0  0
   -1.5000    0.0000    0.0000 C   0  0  0  0  0  0  0  0  0  0  0  0
   -0.7500    1.2990    0.0000 C   0  0  0  0  0  0  0  0  0  0  0  0
    0.7500    1.2990    0.0000 C   0  0  0  0  0  0  0  0  0  0  0  0
    1.5000    2.5981    0.0000 O   0  0  0  0  0  0  0  0  0  0  0  0
   -1.5000   -2.5981    0.0000 Br  0  0  0  0  0  0  0  0  0  0  0  0
  1  2  2  0
  2  3  1  0
  3  4  2  0
  4  5  1  0
  5  6  2  0
  6  7  1  0
  3  8  1  0
  6  1  1  0
M  END
>  <name>  (795) 
4-bromophenol

>  <Outcome>  (795) 
2

>  <SMILES>  (795) 
Oc1ccc(Br)cc1

$$$$

     RDKit          2D

  9  9  0  0  0  0  0  0  0  0999 V2000
    3.7500   -1.2990    0.0000 C   0  0  0  0  0  0  0  0  0  0  0  0
    3.0000    0.0000    0.0000 O   0  0  0  0  0  0  0  0  0  0  0  0
    1.5000    0.0000    0.0000 C   0  0  0  0  0  0  0  0  0  0  0  0
    0.7500   -1.2990    0.0000 C   0  0  0  0  0  0  0  0  0  0  0  0
   -0.7500   -1.2990    0.0000 C   0  0  0  0  0  0  0  0  0  0  0  0
   -1.5000    0.0000    0.0000 C   0  0  0  0  0  0  0  0  0  0  0  0
   -0.7500    1.2990    0.0000 C   0  0  0  0  0  0  0  0  0  0  0  0
    0.7500    1.2990    0.0000 C   0  0  0  0  0  0  0  0  0  0  0  0
    1.5000    2.5981    0.0000 N   0  0  0  0  0  0  0  0  0  0  0  0
  1  2  1  0
  2  3  1  0
  3  4  2  0
  4  5  1  0
  5  6  2  0
  6  7  1  0
  7  8  2  0
  8  9  1  0
  8  3  1  0
M  END
>  <name>  (796) 
2-methoxyaniline

>  <Outcome>  (796) 
2

>  <SMILES>  (796) 
COc1ccccc1N

$$$$

     RDKit          2D

 24 25  0  0  0  0  0  0  0  0999 V2000
    5.2500    1.2990    0.0000 C   0  0  0  0  0  0  0  0  0  0  0  0
    3.7500    1.2990    0.0000 C   0  0  0  0  0  0  0  0  0  0  0  0
    3.0000    0.0000    0.0000 O   0  0  0  0  0  0  0  0  0  0  0  0
    1.5000    0.0000    0.0000 C   0  0  0  0  0  0  0  0  0  0  0  0
    0.7500   -1.2990    0.0000 C   0  0  0  0  0  0  0  0  0  0  0  0
   -0.7500   -1.2990    0.0000 C   0  0  0  0  0  0  0  0  0  0  0  0
   -1.5000    0.0000    0.0000 C   0  0  0  0  0  0  0  0  0  0  0  0
   -0.7500    1.2990    0.0000 C   0  0  0  0  0  0  0  0  0  0  0  0
    0.7500    1.2990    0.0000 C   0  0  0  0  0  0  0  0  0  0  0  0
   -1.5000    2.5981    0.0000 O   0  0  0  0  0  0  0  0  0  0  0  0
   -0.7500    3.8971    0.0000 C   0  0  0  0  0  0  0  0  0  0  0  0
    0.7500    3.8971    0.0000 C   0  0  0  0  0  0  0  0  0  0  0  0
    1.5000    5.1962    0.0000 C   0  0  0  0  0  0  0  0  0  0  0  0
    0.7500    6.4952    0.0000 C   0  0  0  0  0  0  0  0  0  0  0  0
   -0.7500    6.4952    0.0000 C   0  0  0  0  0  0  0  0  0  0  0  0
   -1.5000    5.1962    0.0000 C   0  0  0  0  0  0  0  0  0  0  0  0
    1.5000    7.7942    0.0000 C   0  0  0  0  0  0  0  0  0  0  0  0
    2.2500    9.0933    0.0000 F   0  0  0  0  0  0  0  0  0  0  0  0
    2.7990    7.0442    0.0000 F   0  0  0  0  0  0  0  0  0  0  0  0
    0.2010    8.5442    0.0000 F   0  0  0  0  0  0  0  0  0  0  0  0
    1.5000    2.5981    0.0000 Cl  0  0  0  0  0  0  0  0  0  0  0  0
    1.5000   -2.5981    0.0000 N   0  0  0  0  0  4  0  0  0  0  0  0
    3.0000   -2.5981    0.0000 O   0  0  0  0  0  0  0  0  0  0  0  0
    0.7500   -3.8971    0.0000 O   0  0  0  0  0  1  0  0  0  0  0  0
  1  2  1  0
  2  3  1  0
  3  4  1  0
  4  5  2  0
  5  6  1  0
  6  7  2  0
  7  8  1  0
  8  9  2  0
  8 10  1  0
 10 11  1  0
 11 12  2  0
 12 13  1  0
 13 14  2  0
 14 15  1  0
 15 16  2  0
 14 17  1  0
 17 18  1  0
 17 19  1  0
 17 20  1  0
 12 21  1  0
  5 22  1  0
 22 23  2  0
 22 24  1  0
  9  4  1  0
 16 11  1  0
M  CHG  2  22   1  24  -1
M  END
>  <name>  (797) 
2-chloro-1-(3-ethoxy-4-nitrophenoxy)-4-(trifluoromethyl)benzene

>  <Outcome>  (797) 
2

>  <SMILES>  (797) 
CCOc1cc(Oc2ccc(C(F)(F)F)cc2Cl)ccc1[N+](=O)[O-]

$$$$

     RDKit          2D

 10 10  0  0  0  0  0  0  0  0999 V2000
    1.5000    0.0000    0.0000 C   0  0  0  0  0  0  0  0  0  0  0  0
    0.7500   -1.2990    0.0000 C   0  0  0  0  0  0  0  0  0  0  0  0
   -0.7500   -1.2990    0.0000 C   0  0  0  0  0  0  0  0  0  0  0  0
   -1.5000    0.0000    0.0000 C   0  0  0  0  0  0  0  0  0  0  0  0
   -0.7500    1.2990    0.0000 C   0  0  0  0  0  0  0  0  0  0  0  0
    0.7500    1.2990    0.0000 C   0  0  0  0  0  0  0  0  0  0  0  0
   -1.5000    2.5981    0.0000 Cl  0  0  0  0  0  0  0  0  0  0  0  0
   -1.5000   -2.5981    0.0000 N   0  0  0  0  0  4  0  0  0  0  0  0
   -0.7500   -3.8971    0.0000 O   0  0  0  0  0  0  0  0  0  0  0  0
   -3.0000   -2.5981    0.0000 O   0  0  0  0  0  1  0  0  0  0  0  0
  1  2  2  0
  2  3  1  0
  3  4  2  0
  4  5  1  0
  5  6  2  0
  5  7  1  0
  3  8  1  0
  8  9  2  0
  8 10  1  0
  6  1  1  0
M  CHG  2   8   1  10  -1
M  END
>  <name>  (798) 
1-chloro-3-nitrobenzene

>  <Outcome>  (798) 
2

>  <SMILES>  (798) 
O=[N+]([O-])c1cccc(Cl)c1

$$$$

     RDKit          2D

 12 12  0  0  0  0  0  0  0  0999 V2000
    3.0000   -1.5000    0.0000 C   0  0  0  0  0  0  0  0  0  0  0  0
    3.0000    0.0000    0.0000 C   0  0  0  0  0  0  0  0  0  0  0  0
    3.0000    1.5000    0.0000 C   0  0  0  0  0  0  0  0  0  0  0  0
    4.5000    0.0000    0.0000 C   0  0  0  0  0  0  0  0  0  0  0  0
    1.5000    0.0000    0.0000 C   0  0  0  0  0  0  0  0  0  0  0  0
    0.7500   -1.2990    0.0000 C   0  0  0  0  0  0  0  0  0  0  0  0
   -0.7500   -1.2990    0.0000 C   0  0  0  0  0  0  0  0  0  0  0  0
   -1.5000    0.0000    0.0000 C   0  0  0  0  0  0  0  0  0  0  0  0
   -0.7500    1.2990    0.0000 C   0  0  0  0  0  0  0  0  0  0  0  0
    0.7500    1.2990    0.0000 C   0  0  0  0  0  0  0  0  0  0  0  0
   -3.0000    0.0000    0.0000 O   0  0  0  0  0  0  0  0  0  0  0  0
   -1.5000   -2.5981    0.0000 O   0  0  0  0  0  0  0  0  0  0  0  0
  1  2  1  0
  2  3  1  0
  2  4  1  0
  2  5  1  0
  5  6  2  0
  6  7  1  0
  7  8  2  0
  8  9  1  0
  9 10  2  0
  8 11  1  0
  7 12  1  0
 10  5  1  0
M  END
>  <name>  (799) 
4-tert-butylbenzene-1,2-diol

>  <Outcome>  (799) 
2

>  <SMILES>  (799) 
CC(C)(C)c1ccc(O)c(O)c1

$$$$

     RDKit          2D

 11  4  0  0  0  0  0  0  0  0999 V2000
    0.0000    0.0000    0.0000 O   0  0  0  0  0  0  0  0  0  0  0  0
    1.0000    0.0000    0.0000 O   0  0  0  0  0  0  0  0  0  0  0  0
    0.0000    1.0000    0.0000 O   0  0  0  0  0  0  0  0  0  0  0  0
    2.0000    0.0000    0.0000 O   0  0  0  0  0  0  0  0  0  0  0  0
    0.0000    2.0000    0.0000 O   0  0  0  0  0  0  0  0  0  0  0  0
    3.0000    0.0000    0.0000 O   0  0  0  0  0  1  0  0  0  0  0  0
    4.2990    0.7500    0.0000 S   0  0  0  0  0  0  0  0  0  0  0  0
    5.0490   -0.5490    0.0000 O   0  0  0  0  0  0  0  0  0  0  0  0
    3.5490    2.0490    0.0000 O   0  0  0  0  0  0  0  0  0  0  0  0
    5.5981    1.5000    0.0000 O   0  0  0  0  0  1  0  0  0  0  0  0
    0.0000    3.0000    0.0000 Cu  0  0  0  0  0 15  0  0  0  0  0  0
  6  7  1  0
  7  8  2  0
  7  9  2  0
  7 10  1  0
M  CHG  3   6  -1  10  -1  11   2
M  END
>  <name>  (800) 
copper;sulfate;pentahydrate

>  <Outcome>  (800) 
2

>  <SMILES>  (800) 
O.O.O.O.O.O=S(=O)([O-])[O-].[Cu+2]

$$$$

     RDKit          2D

  8  8  0  0  0  0  0  0  0  0999 V2000
    1.3494   -2.2403    0.0000 O   0  0  0  0  0  0  0  0  0  0  0  0
    0.8645   -1.5729    0.0000 C   0  0  0  0  0  0  0  0  0  0  0  0
    0.0395   -1.5729    0.0000 O   0  0  0  0  0  0  0  0  0  0  0  0
   -0.2154   -0.7882    0.0000 C   0  0  0  0  0  0  0  0  0  0  0  0
    0.4520   -0.3033    0.0000 C   0  0  0  0  0  0  0  0  0  0  0  0
    0.4520    0.5217    0.0000 C   0  0  0  0  0  0  0  0  0  0  0  0
   -0.2625    0.9342    0.0000 O   0  0  0  0  0  0  0  0  0  0  0  0
    1.1194   -0.7882    0.0000 O   0  0  0  0  0  0  0  0  0  0  0  0
  1  2  2  0
  2  3  1  0
  3  4  1  0
  4  5  1  0
  5  6  1  0
  6  7  1  0
  5  8  1  0
  2  8  1  0
M  END
>  <name>  (801) 
4-(hydroxymethyl)-1,3-dioxolan-2-one

>  <Outcome>  (801) 
0

>  <SMILES>  (801) 
O=C1OCC(CO)O1

$$$$

     RDKit          2D

 11 10  0  0  0  0  0  0  0  0999 V2000
   -0.6105   -3.2206    0.0000 C   0  0  0  0  0  0  0  0  0  0  0  0
   -0.6105   -2.3956    0.0000 C   0  0  0  0  0  0  0  0  0  0  0  0
   -1.3250   -1.9831    0.0000 C   0  0  0  0  0  0  0  0  0  0  0  0
    0.1040   -1.9831    0.0000 C   0  0  0  0  0  0  0  0  0  0  0  0
    0.8184   -2.3956    0.0000 O   0  0  0  0  0  0  0  0  0  0  0  0
    0.1040   -1.1581    0.0000 O   0  0  0  0  0  0  0  0  0  0  0  0
    0.8184   -0.7456    0.0000 O   0  0  0  0  0  0  0  0  0  0  0  0
    0.8184    0.0794    0.0000 C   0  0  0  0  0  0  0  0  0  0  0  0
    0.8184    0.9044    0.0000 C   0  0  0  0  0  0  0  0  0  0  0  0
    1.6434    0.0794    0.0000 C   0  0  0  0  0  0  0  0  0  0  0  0
   -0.0066    0.0794    0.0000 C   0  0  0  0  0  0  0  0  0  0  0  0
  1  2  1  0
  2  3  1  0
  2  4  1  0
  4  5  2  0
  4  6  1  0
  6  7  1  0
  7  8  1  0
  8  9  1  0
  8 10  1  0
  8 11  1  0
M  END
>  <name>  (802) 
tert-butyl 2-methylpropaneperoxoate

>  <Outcome>  (802) 
1

>  <SMILES>  (802) 
CC(C)C(=O)OOC(C)(C)C

$$$$

     RDKit          2D

  6  5  0  0  0  0  0  0  0  0999 V2000
   -0.1915    0.7145    0.0000 O   0  0  0  0  0  0  0  0  0  0  0  0
    0.5230    1.1270    0.0000 C   0  0  0  0  0  0  0  0  0  0  0  0
    1.2375    0.7145    0.0000 C   0  0  0  0  0  0  0  0  0  0  0  0
    1.9520    1.1270    0.0000 C   0  0  0  0  0  0  0  0  0  0  0  0
    2.6664    0.7145    0.0000 C   0  0  0  0  0  0  0  0  0  0  0  0
    3.3809    1.1270    0.0000 O   0  0  0  0  0  0  0  0  0  0  0  0
  1  2  1  0
  2  3  1  0
  3  4  1  0
  4  5  1  0
  5  6  1  0
M  END
>  <name>  (803) 
butane-1,4-diol

>  <Outcome>  (803) 
0

>  <SMILES>  (803) 
OCCCCO

$$$$

     RDKit          2D

  9  9  0  0  0  0  0  0  0  0999 V2000
    1.5000    0.0000    0.0000 C   0  0  0  0  0  0  0  0  0  0  0  0
    0.7500   -1.2990    0.0000 C   0  0  0  0  0  0  0  0  0  0  0  0
   -0.7500   -1.2990    0.0000 C   0  0  0  0  0  0  0  0  0  0  0  0
   -1.5000    0.0000    0.0000 C   0  0  0  0  0  0  0  0  0  0  0  0
   -0.7500    1.2990    0.0000 C   0  0  0  0  0  0  0  0  0  0  0  0
    0.7500    1.2990    0.0000 C   0  0  0  0  0  0  0  0  0  0  0  0
    1.5000    2.5981    0.0000 Br  0  0  0  0  0  0  0  0  0  0  0  0
   -3.0000    0.0000    0.0000 Br  0  0  0  0  0  0  0  0  0  0  0  0
   -1.5000   -2.5981    0.0000 O   0  0  0  0  0  0  0  0  0  0  0  0
  1  2  2  0
  2  3  1  0
  3  4  2  0
  4  5  1  0
  5  6  2  0
  6  7  1  0
  4  8  1  0
  3  9  1  0
  6  1  1  0
M  END
>  <name>  (804) 
2,4-dibromophenol

>  <Outcome>  (804) 
2

>  <SMILES>  (804) 
Oc1ccc(Br)cc1Br

$$$$

     RDKit          2D

 11 10  0  0  0  0  0  0  0  0999 V2000
    0.0412   -1.6691    0.0000 C   0  0  0  0  0  0  0  0  0  0  0  0
    0.8662   -1.6691    0.0000 C   0  0  0  0  0  0  0  0  0  0  0  0
    1.2787   -0.9546    0.0000 N   0  0  0  0  0  0  0  0  0  0  0  0
    0.8662   -0.2401    0.0000 C   0  0  0  0  0  0  0  0  0  0  0  0
    1.2787    0.4743    0.0000 C   0  0  0  0  0  0  0  0  0  0  0  0
    2.1037   -0.9546    0.0000 C   0  0  0  0  0  0  0  0  0  0  0  0
    2.5162   -1.6691    0.0000 O   0  0  0  0  0  0  0  0  0  0  0  0
    2.5162   -0.2401    0.0000 C   0  0  0  0  0  0  0  0  0  0  0  0
    3.3412   -0.2401    0.0000 C   0  0  0  0  0  0  0  0  0  0  0  0
    3.7537    0.4743    0.0000 C   0  0  0  0  0  0  0  0  0  0  0  0
    3.7537   -0.9546    0.0000 O   0  0  0  0  0  0  0  0  0  0  0  0
  1  2  1  0
  2  3  1  0
  3  4  1  0
  4  5  1  0
  3  6  1  0
  6  7  2  0
  6  8  1  0
  8  9  1  0
  9 10  1  0
  9 11  2  0
M  END
>  <name>  (805) 
N,N-diethyl-3-oxobutyramide

>  <Outcome>  (805) 
1

>  <SMILES>  (805) 
CCN(CC)C(=O)CC(C)=O

$$$$

     RDKit          2D

  5  4  0  0  0  0  0  0  0  0999 V2000
    0.0000    0.0000    0.0000 C   0  0  0  0  0  0  0  0  0  0  0  0
    1.2990    0.7500    0.0000 C   0  0  0  0  0  0  0  0  0  0  0  0
    2.5981   -0.0000    0.0000 C   0  0  0  0  0  0  0  0  0  0  0  0
    3.8971    0.7500    0.0000 C   0  0  0  0  0  0  0  0  0  0  0  0
    5.1962   -0.0000    0.0000 O   0  0  0  0  0  0  0  0  0  0  0  0
  1  2  1  0
  2  3  1  0
  3  4  1  0
  4  5  2  0
M  END
>  <name>  (806) 
butanal

>  <Outcome>  (806) 
2

>  <SMILES>  (806) 
CCCC=O

$$$$

     RDKit          2D

  7  6  0  0  0  0  0  0  0  0999 V2000
    1.7590    1.6178    0.0000 C   0  0  0  0  0  0  0  0  0  0  0  0
    1.3465    0.9033    0.0000 C   0  0  0  0  0  0  0  0  0  0  0  0
    0.6320    1.3158    0.0000 C   0  0  0  0  0  0  0  0  0  0  0  0
    2.0610    0.4908    0.0000 C   0  0  0  0  0  0  0  0  0  0  0  0
    0.9340    0.1889    0.0000 C   0  0  0  0  0  0  0  0  0  0  0  0
    1.3465   -0.5256    0.0000 O   0  0  0  0  0  0  0  0  0  0  0  0
    0.1090    0.1889    0.0000 Cl  0  0  0  0  0  0  0  0  0  0  0  0
  1  2  1  0
  2  3  1  0
  2  4  1  0
  2  5  1  0
  5  6  2  0
  5  7  1  0
M  END
>  <name>  (807) 
2,2-dimethylpropanoyl chloride

>  <Outcome>  (807) 
1

>  <SMILES>  (807) 
CC(C)(C)C(=O)Cl

$$$$

     RDKit          2D

  9  9  0  0  0  0  0  0  0  0999 V2000
   -0.7145    2.8875    0.0000 O   0  0  0  0  0  0  0  0  0  0  0  0
   -0.0000    2.4750    0.0000 C   0  0  0  0  0  0  0  0  0  0  0  0
    0.7145    2.0625    0.0000 N   0  0  0  0  0  0  0  0  0  0  0  0
    0.7145    1.2375    0.0000 C   0  0  0  0  0  0  0  0  0  0  0  0
    1.4289    0.8250    0.0000 C   0  0  0  0  0  0  0  0  0  0  0  0
    1.4289    0.0000    0.0000 C   0  0  0  0  0  0  0  0  0  0  0  0
    0.7145   -0.4125    0.0000 C   0  0  0  0  0  0  0  0  0  0  0  0
   -0.0000    0.0000    0.0000 C   0  0  0  0  0  0  0  0  0  0  0  0
   -0.0000    0.8250    0.0000 C   0  0  0  0  0  0  0  0  0  0  0  0
  1  2  2  0
  2  3  2  0
  3  4  1  0
  4  5  2  0
  5  6  1  0
  6  7  2  0
  7  8  1  0
  8  9  2  0
  4  9  1  0
M  END
>  <name>  (808) 
isocyanatobenzene

>  <Outcome>  (808) 
1

>  <SMILES>  (808) 
O=C=Nc1ccccc1

$$$$

     RDKit          2D

  4  3  0  0  0  0  0  0  0  0999 V2000
    0.0000    0.0000    0.0000 O   0  0  0  0  0  0  0  0  0  0  0  0
    1.2990    0.7500    0.0000 P   0  0  0  0  0  4  0  0  0  0  0  0
    2.5981   -0.0000    0.0000 O   0  0  0  0  0  0  0  0  0  0  0  0
    1.2990    2.2500    0.0000 O   0  0  0  0  0  0  0  0  0  0  0  0
  1  2  1  0
  2  3  2  0
  2  4  1  0
M  CHG  1   2   1
M  END
>  <name>  (809) 
dihydroxy(oxo)phosphanium

>  <Outcome>  (809) 
2

>  <SMILES>  (809) 
O=[P+](O)O

$$$$

     RDKit          2D

 23 24  0  0  0  0  0  0  0  0999 V2000
    0.8679    2.8126    0.0000 Br  0  0  0  0  0  0  0  0  0  0  0  0
    0.1534    2.4001    0.0000 C   0  0  0  0  0  0  0  0  0  0  0  0
   -0.5610    2.8126    0.0000 C   0  0  0  0  0  0  0  0  0  0  0  0
   -0.5610    3.6376    0.0000 Br  0  0  0  0  0  0  0  0  0  0  0  0
   -1.2755    2.4001    0.0000 C   0  0  0  0  0  0  0  0  0  0  0  0
   -1.9900    2.8126    0.0000 Br  0  0  0  0  0  0  0  0  0  0  0  0
   -1.2755    1.5751    0.0000 C   0  0  0  0  0  0  0  0  0  0  0  0
   -1.9900    1.1626    0.0000 O   0  0  0  0  0  0  0  0  0  0  0  0
   -1.9900    0.3376    0.0000 C   0  0  0  0  0  0  0  0  0  0  0  0
   -2.7045   -0.0749    0.0000 C   0  0  0  0  0  0  0  0  0  0  0  0
   -3.4189    0.3376    0.0000 Br  0  0  0  0  0  0  0  0  0  0  0  0
   -2.7045   -0.8999    0.0000 C   0  0  0  0  0  0  0  0  0  0  0  0
   -3.4189   -1.3124    0.0000 Br  0  0  0  0  0  0  0  0  0  0  0  0
   -1.9900   -1.3124    0.0000 C   0  0  0  0  0  0  0  0  0  0  0  0
   -1.9900   -2.1374    0.0000 Br  0  0  0  0  0  0  0  0  0  0  0  0
   -1.2755   -0.8999    0.0000 C   0  0  0  0  0  0  0  0  0  0  0  0
   -0.5610   -1.3124    0.0000 Br  0  0  0  0  0  0  0  0  0  0  0  0
   -1.2755   -0.0749    0.0000 C   0  0  0  0  0  0  0  0  0  0  0  0
   -0.5610    0.3376    0.0000 Br  0  0  0  0  0  0  0  0  0  0  0  0
   -0.5610    1.1626    0.0000 C   0  0  0  0  0  0  0  0  0  0  0  0
   -0.0761    0.4952    0.0000 Br  0  0  0  0  0  0  0  0  0  0  0  0
    0.1534    1.5751    0.0000 C   0  0  0  0  0  0  0  0  0  0  0  0
    0.8679    1.1626    0.0000 Br  0  0  0  0  0  0  0  0  0  0  0  0
  1  2  1  0
  3  2  2  0
  3  4  1  0
  5  3  1  0
  5  6  1  0
  7  5  2  0
  7  8  1  0
  8  9  1  0
 10  9  2  0
 10 11  1  0
 12 10  1  0
 12 13  1  0
 14 12  2  0
 14 15  1  0
 16 14  1  0
 16 17  1  0
 18 16  2  0
 18 19  1  0
 20  7  1  0
 20 21  1  0
 22 20  2  0
 22 23  1  0
  2 22  1  0
  9 18  1  0
M  END
>  <name>  (810) 
1,1-Oxybis[2,3,4,5,6-pentabromobenzene]

>  <Outcome>  (810) 
0

>  <SMILES>  (810) 
Brc1c(Br)c(Br)c(Oc2c(Br)c(Br)c(Br)c(Br)c2Br)c(Br)c1Br

$$$$

     RDKit          2D

  6  5  0  0  0  0  0  0  0  0999 V2000
    2.4750   -1.4289    0.0000 C   0  0  0  0  0  0  0  0  0  0  0  0
    2.0625   -0.7145    0.0000 C   0  0  0  0  0  0  0  0  0  0  0  0
    1.2375   -0.7145    0.0000 C   0  0  0  0  0  0  0  0  0  0  0  0
    0.8250   -1.4289    0.0000 O   0  0  0  0  0  0  0  0  0  0  0  0
    0.8250    0.0000    0.0000 O   0  0  0  0  0  0  0  0  0  0  0  0
    0.0000    0.0000    0.0000 C   0  0  0  0  0  0  0  0  0  0  0  0
  1  2  2  0
  2  3  1  0
  3  4  2  0
  3  5  1  0
  5  6  1  0
M  END
>  <name>  (811) 
methyl prop-2-enoate

>  <Outcome>  (811) 
1

>  <SMILES>  (811) 
C=CC(=O)OC

$$$$

     RDKit          2D

 10  8  0  0  0  0  0  0  0  0999 V2000
    0.0000    0.0000    0.0000 C   0  0  0  0  0  0  0  0  0  0  0  0
    1.2990    0.7500    0.0000 Si  0  0  0  0  0  4  0  0  0  0  0  0
    2.5981    1.5000    0.0000 C   0  0  0  0  0  0  0  0  0  0  0  0
    2.0490   -0.5490    0.0000 C   0  0  0  0  0  0  0  0  0  0  0  0
    0.5490    2.0490    0.0000 N   0  0  0  0  0  2  0  0  0  0  0  0
    1.2990    3.3481    0.0000 Si  0  0  0  0  0  4  0  0  0  0  0  0
    0.0000    4.0981    0.0000 C   0  0  0  0  0  0  0  0  0  0  0  0
    2.5981    2.5981    0.0000 C   0  0  0  0  0  0  0  0  0  0  0  0
    2.0490    4.6471    0.0000 C   0  0  0  0  0  0  0  0  0  0  0  0
    3.5981    0.0000    0.0000 Na  0  0  0  0  0 15  0  0  0  0  0  0
  1  2  1  0
  2  3  1  0
  2  4  1  0
  2  5  1  0
  5  6  1  0
  6  7  1  0
  6  8  1  0
  6  9  1  0
M  CHG  2   5  -1  10   1
M  END
>  <name>  (812) 
sodium;bis(trimethylsilyl)azanide

>  <Outcome>  (812) 
2

>  <SMILES>  (812) 
C[Si](C)(C)[N-][Si](C)(C)C.[Na+]

$$$$

     RDKit          2D

  9  8  0  0  0  0  0  0  0  0999 V2000
    1.0461    1.4305    0.0000 C   0  0  0  0  0  0  0  0  0  0  0  0
    1.7605    1.8430    0.0000 C   0  0  0  0  0  0  0  0  0  0  0  0
    2.4750    1.4305    0.0000 C   0  0  0  0  0  0  0  0  0  0  0  0
    2.4750    0.6055    0.0000 O   0  0  0  0  0  0  0  0  0  0  0  0
    3.1895    1.8430    0.0000 O   0  0  0  0  0  0  0  0  0  0  0  0
    3.9039    1.4305    0.0000 C   0  0  0  0  0  0  0  0  0  0  0  0
    4.6184    1.8430    0.0000 C   0  0  0  0  0  0  0  0  0  0  0  0
    5.3329    1.4305    0.0000 C   0  0  0  0  0  0  0  0  0  0  0  0
    6.0474    1.8430    0.0000 C   0  0  0  0  0  0  0  0  0  0  0  0
  1  2  2  0
  2  3  1  0
  3  4  2  0
  3  5  1  0
  5  6  1  0
  6  7  1  0
  7  8  1  0
  8  9  1  0
M  END
>  <name>  (813) 
butyl prop-2-enoate

>  <Outcome>  (813) 
1

>  <SMILES>  (813) 
C=CC(=O)OCCCC

$$$$

     RDKit          2D

  7  6  0  0  0  0  0  0  0  0999 V2000
    0.0000    0.0000    0.0000 F   0  0  0  0  0  0  0  0  0  0  0  0
    1.2990    0.7500    0.0000 U   0  0  0  0  0  6  0  0  0  0  0  0
    1.2990   -0.7500    0.0000 F   0  0  0  0  0  0  0  0  0  0  0  0
    2.5981    0.0000    0.0000 F   0  0  0  0  0  0  0  0  0  0  0  0
    1.2990    2.2500    0.0000 F   0  0  0  0  0  0  0  0  0  0  0  0
    2.5981    1.5000    0.0000 F   0  0  0  0  0  0  0  0  0  0  0  0
    0.0000    1.5000    0.0000 F   0  0  0  0  0  0  0  0  0  0  0  0
  1  2  1  0
  2  3  1  0
  2  4  1  0
  2  5  1  0
  2  6  1  0
  2  7  1  0
M  END
>  <name>  (814) 
hexafluorouranium

>  <Outcome>  (814) 
2

>  <SMILES>  (814) 
F[U](F)(F)(F)(F)F

$$$$

     RDKit          2D

  4  1  0  0  0  0  0  0  0  0999 V2000
    0.0000    0.0000    0.0000 O   0  0  0  0  0  0  0  0  0  0  0  0
    1.2990    0.7500    0.0000 Zr  0  0  0  0  0  2  0  0  0  0  0  0
    0.0000    1.7500    0.0000 Cl  0  0  0  0  0  0  0  0  0  0  0  0
    2.2990    0.0000    0.0000 Cl  0  0  0  0  0  0  0  0  0  0  0  0
  1  2  2  0
M  END
>  <name>  (815) 
oxozirconium;dihydrochloride

>  <Outcome>  (815) 
2

>  <SMILES>  (815) 
Cl.Cl.O=[Zr]

$$$$

     RDKit          2D

 11 11  0  0  0  0  0  0  0  0999 V2000
   -0.0000    3.3000    0.0000 C   0  0  0  0  0  0  0  0  0  0  0  0
   -0.0000    2.4750    0.0000 C   0  0  0  0  0  0  0  0  0  0  0  0
    0.7145    2.0625    0.0000 C   0  0  0  0  0  0  0  0  0  0  0  0
    0.7145    1.2375    0.0000 C   0  0  0  0  0  0  0  0  0  0  0  0
    1.4289    0.8250    0.0000 C   0  0  0  0  0  0  0  0  0  0  0  0
    1.4289   -0.0000    0.0000 C   0  0  0  0  0  0  0  0  0  0  0  0
    0.7145   -0.4125    0.0000 C   0  0  0  0  0  0  0  0  0  0  0  0
    0.7145   -1.2375    0.0000 O   0  0  0  0  0  0  0  0  0  0  0  0
    1.4289   -1.6500    0.0000 C   0  0  0  0  0  0  0  0  0  0  0  0
   -0.0000   -0.0000    0.0000 C   0  0  0  0  0  0  0  0  0  0  0  0
   -0.0000    0.8250    0.0000 C   0  0  0  0  0  0  0  0  0  0  0  0
  2  1  1  0
  2  3  2  3
  3  4  1  0
  4  5  2  0
  5  6  1  0
  6  7  2  0
  7  8  1  0
  8  9  1  0
  7 10  1  0
 10 11  2  0
  4 11  1  0
M  END
>  <name>  (816) 
(E)-anethole

>  <Outcome>  (816) 
0

>  <SMILES>  (816) 
CC=Cc1ccc(OC)cc1

$$$$

     RDKit          2D

 17 16  0  0  0  0  0  0  0  0999 V2000
    6.6877    4.7169    0.0000 C   0  0  0  0  0  0  0  0  0  0  0  0
    7.4021    4.3044    0.0000 C   0  0  0  0  0  0  0  0  0  0  0  0
    8.1166    4.7169    0.0000 C   0  0  0  0  0  0  0  0  0  0  0  0
    8.8311    4.3044    0.0000 C   0  0  0  0  0  0  0  0  0  0  0  0
    9.5455    4.7169    0.0000 C   0  0  0  0  0  0  0  0  0  0  0  0
   10.2600    4.3044    0.0000 C   0  0  0  0  0  0  0  0  0  0  0  0
   10.9745    4.7169    0.0000 C   0  0  0  0  0  0  0  0  0  0  0  0
   11.6889    4.3044    0.0000 C   0  0  0  0  0  0  0  0  0  0  0  0
   12.4034    4.7169    0.0000 C   0  0  0  0  0  0  0  0  0  0  0  0
   13.1179    4.3044    0.0000 C   0  0  0  0  0  0  0  0  0  0  0  0
   13.8324    4.7169    0.0000 C   0  0  0  0  0  0  0  0  0  0  0  0
   14.5468    4.3044    0.0000 C   0  0  0  0  0  0  0  0  0  0  0  0
   14.5468    3.4794    0.0000 O   0  0  0  0  0  0  0  0  0  0  0  0
   15.2613    4.7169    0.0000 O   0  0  0  0  0  0  0  0  0  0  0  0
   15.9758    4.3044    0.0000 C   0  0  0  0  0  0  0  0  0  0  0  0
   16.6902    4.7169    0.0000 C   0  0  0  0  0  0  0  0  0  0  0  0
   15.9758    3.4794    0.0000 C   0  0  0  0  0  0  0  0  0  0  0  0
  1  2  1  0
  2  3  1  0
  3  4  1  0
  4  5  1  0
  5  6  1  0
  6  7  1  0
  7  8  1  0
  8  9  1  0
  9 10  1  0
 10 11  1  0
 11 12  1  0
 12 13  2  0
 12 14  1  0
 14 15  1  0
 15 16  1  0
 15 17  1  0
M  END
>  <name>  (817) 
propan-2-yl dodecanoate

>  <Outcome>  (817) 
0

>  <SMILES>  (817) 
CCCCCCCCCCCC(=O)OC(C)C

$$$$

     RDKit          2D

 71 72  0  0  0  0  0  0  0  0999 V2000
    7.4840    0.0000    0.0000 C   0  0  0  0  0  0  0  0  0  0  0  0
    5.9840    0.0000    0.0000 C   0  0  0  0  0  0  0  0  0  0  0  0
    5.7960    1.4882    0.0000 C   0  0  0  0  0  0  0  0  0  0  0  0
    5.2439    2.8828    0.0000 N   0  0  0  0  0  0  0  0  0  0  0  0
    4.3622    4.0964    0.0000 C   0  0  0  0  0  0  0  0  0  0  0  0
    5.4556    5.1232    0.0000 O   0  0  0  0  0  0  0  0  0  0  0  0
    3.2064    5.0525    0.0000 C   0  0  0  0  0  0  0  0  0  0  0  0
    1.8492    5.6912    0.0000 N   0  0  0  0  0  0  0  0  0  0  0  0
    0.3757    5.9722    0.0000 C   0  0  0  0  0  0  0  0  0  0  0  0
    0.4699    7.4693    0.0000 O   0  0  0  0  0  0  0  0  0  0  0  0
   -1.1213    5.8781    0.0000 C   0  0  0  0  0  0  0  0  0  0  0  0
   -2.5479    5.4145    0.0000 C   0  0  0  0  0  0  0  0  0  0  0  0
   -3.8144    4.6108    0.0000 N   0  0  0  0  0  0  0  0  0  0  0  0
   -4.8412    3.5173    0.0000 C   0  0  0  0  0  0  0  0  0  0  0  0
   -6.0547    4.3990    0.0000 O   0  0  0  0  0  0  0  0  0  0  0  0
   -5.5638    2.2029    0.0000 C   0  0  0  0  0  0  0  0  0  0  0  0
   -5.9369    0.7500    0.0000 N   0  0  0  0  0  0  0  0  0  0  0  0
   -5.9369   -0.7500    0.0000 C   0  0  0  0  0  0  0  0  0  0  0  0
   -7.4250   -0.9380    0.0000 O   0  0  0  0  0  0  0  0  0  0  0  0
   -5.5638   -2.2029    0.0000 C   0  0  0  0  0  0  0  0  0  0  0  0
   -4.8412   -3.5173    0.0000 N   0  0  0  0  0  0  0  0  0  0  0  0
   -3.8144   -4.6108    0.0000 C   0  0  0  0  0  0  0  0  0  0  0  0
   -4.7705   -5.7666    0.0000 O   0  0  0  0  0  0  0  0  0  0  0  0
   -2.5479   -5.4145    0.0000 C   0  0  0  0  0  0  0  0  0  0  0  0
   -3.1866   -6.7718    0.0000 C   0  0  0  0  0  0  0  0  0  0  0  0
   -1.1213   -5.8781    0.0000 N   0  0  0  0  0  0  0  0  0  0  0  0
    0.3757   -5.9722    0.0000 C   0  0  0  0  0  0  0  0  0  0  0  0
    0.4699   -7.4693    0.0000 O   0  0  0  0  0  0  0  0  0  0  0  0
    1.8492   -5.6912    0.0000 C   0  0  0  0  0  0  0  0  0  0  0  0
    3.2064   -5.0525    0.0000 C   0  0  0  0  0  0  0  0  0  0  0  0
    4.3622   -4.0964    0.0000 C   0  0  0  0  0  0  0  0  0  0  0  0
    5.2439   -2.8828    0.0000 N   0  0  0  0  0  0  0  0  0  0  0  0
    5.7960   -1.4882    0.0000 C   0  0  0  0  0  0  0  0  0  0  0  0
    7.2489   -1.8612    0.0000 O   0  0  0  0  0  0  0  0  0  0  0  0
    5.4556   -5.1232    0.0000 C   0  0  0  0  0  0  0  0  0  0  0  0
    6.8916   -4.6896    0.0000 O   0  0  0  0  0  0  0  0  0  0  0  0
    5.1131   -6.5836    0.0000 O   0  0  0  0  0  0  0  0  0  0  0  0
   -1.4024   -7.3515    0.0000 C   0  0  0  0  0  0  0  0  0  0  0  0
   -6.9585   -2.7551    0.0000 C   0  0  0  0  0  0  0  0  0  0  0  0
   -6.9585    2.7551    0.0000 C   0  0  0  0  0  0  0  0  0  0  0  0
   -8.1340    1.8233    0.0000 C   0  0  0  0  0  0  0  0  0  0  0  0
   -9.5287    2.3755    0.0000 C   0  0  0  0  0  0  0  0  0  0  0  0
   -7.9149    0.3394    0.0000 C   0  0  0  0  0  0  0  0  0  0  0  0
   -3.1866    6.7718    0.0000 C   0  0  0  0  0  0  0  0  0  0  0  0
   -2.3305    8.0035    0.0000 O   0  0  0  0  0  0  0  0  0  0  0  0
   -4.6813    6.8973    0.0000 O   0  0  0  0  0  0  0  0  0  0  0  0
   -1.4024    7.3515    0.0000 C   0  0  0  0  0  0  0  0  0  0  0  0
    4.0102    6.3190    0.0000 C   0  0  0  0  0  0  0  0  0  0  0  0
    5.5088    6.2562    0.0000 C   0  0  0  0  0  0  0  0  0  0  0  0
    6.3126    7.5227    0.0000 C   0  0  0  0  0  0  0  0  0  0  0  0
    7.8113    7.4599    0.0000 N   0  0  0  0  0  0  0  0  0  0  0  0
    8.6150    8.7263    0.0000 C   0  0  0  0  0  0  0  0  0  0  0  0
   10.1137    8.6635    0.0000 N   0  0  0  0  0  0  0  0  0  0  0  0
    7.9201   10.0557    0.0000 N   0  0  0  0  0  0  0  0  0  0  0  0
    7.2489    1.8612    0.0000 C   0  0  0  0  0  0  0  0  0  0  0  0
    7.6523    3.3060    0.0000 C   0  0  0  0  0  0  0  0  0  0  0  0
    9.1052    3.6790    0.0000 C   0  0  0  0  0  0  0  0  0  0  0  0
   10.1547    2.6073    0.0000 C   0  0  0  0  0  0  0  0  0  0  0  0
   11.6075    2.9803    0.0000 C   0  0  0  0  0  0  0  0  0  0  0  0
   12.6570    1.9086    0.0000 C   0  0  0  0  0  0  0  0  0  0  0  0
   12.0109    4.4251    0.0000 C   0  0  0  0  0  0  0  0  0  0  0  0
   13.4638    4.7981    0.0000 C   0  0  0  0  0  0  0  0  0  0  0  0
   13.8672    6.2428    0.0000 C   0  0  0  0  0  0  0  0  0  0  0  0
   15.3201    6.6159    0.0000 C   0  0  0  0  0  0  0  0  0  0  0  0
   15.7234    8.0606    0.0000 C   0  0  0  0  0  0  0  0  0  0  0  0
   14.6739    9.1323    0.0000 C   0  0  0  0  0  0  0  0  0  0  0  0
   13.2211    8.7593    0.0000 C   0  0  0  0  0  0  0  0  0  0  0  0
   12.8177    7.3145    0.0000 C   0  0  0  0  0  0  0  0  0  0  0  0
   10.9614    5.4968    0.0000 O   0  0  0  0  0  0  0  0  0  0  0  0
   11.3648    6.9415    0.0000 C   0  0  0  0  0  0  0  0  0  0  0  0
    9.5086    5.1237    0.0000 C   0  0  0  0  0  0  0  0  0  0  0  0
  1  2  1  0
  2  3  1  0
  3  4  1  0
  4  5  1  0
  5  6  2  0
  5  7  1  0
  7  8  1  0
  8  9  1  0
  9 10  2  0
  9 11  1  0
 11 12  1  0
 12 13  1  0
 13 14  1  0
 14 15  2  0
 14 16  1  0
 16 17  1  0
 17 18  1  0
 18 19  2  0
 18 20  1  0
 20 21  1  0
 21 22  1  0
 22 23  2  0
 22 24  1  0
 24 25  2  0
 24 26  1  0
 26 27  1  0
 27 28  2  0
 27 29  1  0
 29 30  1  0
 30 31  1  0
 31 32  1  0
 32 33  1  0
 33 34  2  0
 31 35  1  0
 35 36  2  0
 35 37  1  0
 26 38  1  0
 20 39  1  0
 16 40  1  0
 40 41  1  0
 41 42  1  0
 41 43  1  0
 12 44  1  0
 44 45  2  0
 44 46  1  0
 11 47  1  0
  7 48  1  0
 48 49  1  0
 49 50  1  0
 50 51  1  0
 51 52  2  0
 52 53  1  0
 52 54  1  0
  3 55  1  0
 55 56  2  3
 56 57  1  0
 57 58  2  3
 58 59  1  0
 59 60  1  0
 59 61  1  0
 61 62  1  0
 62 63  1  0
 63 64  2  0
 64 65  1  0
 65 66  2  0
 66 67  1  0
 67 68  2  0
 61 69  1  0
 69 70  1  0
 57 71  1  0
 33  2  1  0
 68 63  1  0
M  END
>  <name>  (818) 
(5R,8S,11R,12S,15S,18S,19S,22R)-15-[3-(diaminomethylideneamino)propyl]-18-[(1E,3E,5S,6S)-6-methoxy-3,5-dimethyl-7-phenylhepta-1,3-dienyl]-1,5,12,19-tetramethyl-2-methylidene-8-(2-methylpropyl)-3,6,9,13,16,20,25-heptaoxo-1,4,7,10,14,17,21-heptazacyclopentacosane-11,22-dicarboxylic acid

>  <Outcome>  (818) 
2

>  <SMILES>  (818) 
C=C1C(=O)NC(C)C(=O)NC(CC(C)C)C(=O)NC(C(=O)O)C(C)C(=O)NC(CCCN=C(N)N)C(=O)NC(C=CC(C)=CC(C)C(Cc2ccccc2)OC)C(C)C(=O)NC(C(=O)O)CCC(=O)N1C

$$$$

     RDKit          2D

  4  3  0  0  0  0  0  0  0  0999 V2000
    2.0625   -0.7145    0.0000 C   0  0  0  0  0  0  0  0  0  0  0  0
    1.2375   -0.7145    0.0000 C   0  0  0  0  0  0  0  0  0  0  0  0
    0.8250   -0.0000    0.0000 C   0  0  0  0  0  0  0  0  0  0  0  0
    0.0000   -0.0000    0.0000 N   0  0  0  0  0  0  0  0  0  0  0  0
  1  2  1  0
  2  3  1  0
  3  4  1  0
M  END
>  <name>  (819) 
propan-1-amine

>  <Outcome>  (819) 
1

>  <SMILES>  (819) 
CCCN

$$$$

     RDKit          2D

 13 14  0  0  0  0  0  0  0  0999 V2000
    3.0000    0.0000    0.0000 C   0  0  0  0  0  0  0  0  0  0  0  0
    1.5000    0.0000    0.0000 C   0  0  0  0  0  0  0  0  0  0  0  0
    0.7500   -1.2990    0.0000 C   0  0  0  0  0  0  0  0  0  0  0  0
   -0.7500   -1.2990    0.0000 C   0  0  0  0  0  0  0  0  0  0  0  0
   -1.5000    0.0000    0.0000 C   0  0  0  0  0  0  0  0  0  0  0  0
   -0.7500    1.2990    0.0000 C   0  0  0  0  0  0  0  0  0  0  0  0
    0.7500    1.2990    0.0000 C   0  0  0  0  0  0  0  0  0  0  0  0
    1.5000    2.5981    0.0000 C   0  0  0  0  0  0  0  0  0  0  0  0
    3.0000    2.5981    0.0000 C   0  0  0  0  0  0  0  0  0  0  0  0
    3.7500    3.8971    0.0000 C   0  0  0  0  0  0  0  0  0  0  0  0
    3.0000    5.1962    0.0000 C   0  0  0  0  0  0  0  0  0  0  0  0
    1.5000    5.1962    0.0000 C   0  0  0  0  0  0  0  0  0  0  0  0
    0.7500    3.8971    0.0000 C   0  0  0  0  0  0  0  0  0  0  0  0
  1  2  1  0
  2  3  2  0
  3  4  1  0
  4  5  2  0
  5  6  1  0
  6  7  2  0
  7  8  1  0
  8  9  2  0
  9 10  1  0
 10 11  2  0
 11 12  1  0
 12 13  2  0
  7  2  1  0
 13  8  1  0
M  END
>  <name>  (820) 
1-methyl-2-phenylbenzene

>  <Outcome>  (820) 
2

>  <SMILES>  (820) 
Cc1ccccc1-c1ccccc1

$$$$

     RDKit          2D

 16 17  0  0  0  0  0  0  0  0999 V2000
    0.0000   -3.3000    0.0000 O   0  0  0  0  0  0  0  0  0  0  0  0
    0.7145   -2.8875    0.0000 C   0  0  0  0  0  0  0  0  0  0  0  0
    1.4289   -2.4750    0.0000 N   0  0  0  0  0  0  0  0  0  0  0  0
    1.4289   -1.6500    0.0000 C   0  0  0  0  0  0  0  0  0  0  0  0
    0.7145   -1.2375    0.0000 C   0  0  0  0  0  0  0  0  0  0  0  0
    0.7145   -0.4125    0.0000 C   0  0  0  0  0  0  0  0  0  0  0  0
    1.4289   -0.0000    0.0000 C   0  0  0  0  0  0  0  0  0  0  0  0
    2.1434   -0.4125    0.0000 C   0  0  0  0  0  0  0  0  0  0  0  0
    2.8579   -0.0000    0.0000 C   0  0  0  0  0  0  0  0  0  0  0  0
    2.8579    0.8250    0.0000 N   0  0  0  0  0  0  0  0  0  0  0  0
    2.1434    1.2375    0.0000 C   0  0  0  0  0  0  0  0  0  0  0  0
    1.4289    1.6500    0.0000 O   0  0  0  0  0  0  0  0  0  0  0  0
    3.5724   -0.4125    0.0000 C   0  0  0  0  0  0  0  0  0  0  0  0
    3.5724   -1.2375    0.0000 C   0  0  0  0  0  0  0  0  0  0  0  0
    2.8579   -1.6500    0.0000 C   0  0  0  0  0  0  0  0  0  0  0  0
    2.1434   -1.2375    0.0000 C   0  0  0  0  0  0  0  0  0  0  0  0
  1  2  2  0
  2  3  2  0
  3  4  1  0
  4  5  2  0
  5  6  1  0
  6  7  2  0
  7  8  1  0
  8  9  2  0
  9 10  1  0
 10 11  2  0
 11 12  2  0
  9 13  1  0
 13 14  2  0
 14 15  1  0
 15 16  2  0
  4 16  1  0
  8 16  1  0
M  END
>  <name>  (821) 
1,5-diisocyanatonaphthalene

>  <Outcome>  (821) 
1

>  <SMILES>  (821) 
O=C=Nc1cccc2c(N=C=O)cccc12

$$$$

     RDKit          2D

 25 25  0  0  0  0  0  0  0  0999 V2000
    1.5000    0.0000    0.0000 C   0  0  0  0  0  0  0  0  0  0  0  0
    0.7500   -1.2990    0.0000 C   0  0  0  0  0  0  0  0  0  0  0  0
   -0.7500   -1.2990    0.0000 C   0  0  0  0  0  0  0  0  0  0  0  0
   -1.5000    0.0000    0.0000 C   0  0  0  0  0  0  0  0  0  0  0  0
   -0.7500    1.2990    0.0000 C   0  0  0  0  0  0  0  0  0  0  0  0
    0.7500    1.2990    0.0000 C   0  0  0  0  0  0  0  0  0  0  0  0
   -3.0000    0.0000    0.0000 O   0  0  0  0  0  0  0  0  0  0  0  0
   -3.7500    1.2990    0.0000 C   0  0  0  0  0  0  0  0  0  0  0  0
   -3.0000    2.5981    0.0000 O   0  0  0  0  0  0  0  0  0  0  0  0
   -5.2500    1.2990    0.0000 C   0  0  0  0  0  0  0  0  0  0  0  0
   -6.0000    2.5981    0.0000 C   0  0  0  0  0  0  0  0  0  0  0  0
   -7.5000    2.5981    0.0000 C   0  0  0  0  0  0  0  0  0  0  0  0
   -8.2500    1.2990    0.0000 O   0  0  0  0  0  0  0  0  0  0  0  0
   -8.2500    3.8971    0.0000 O   0  0  0  0  0  0  0  0  0  0  0  0
   -9.7500    3.8971    0.0000 C   0  0  0  0  0  0  0  0  0  0  0  0
  -10.5000    5.1962    0.0000 C   0  0  0  0  0  0  0  0  0  0  0  0
  -12.0000    5.1962    0.0000 C   0  0  0  0  0  0  0  0  0  0  0  0
  -12.7500    3.8971    0.0000 C   0  0  0  0  0  0  0  0  0  0  0  0
  -12.0000    2.5981    0.0000 C   0  0  0  0  0  0  0  0  0  0  0  0
  -10.5000    2.5981    0.0000 C   0  0  0  0  0  0  0  0  0  0  0  0
   -5.2500    3.8971    0.0000 S   0  0  0  0  0  0  0  0  0  0  0  0
   -6.5490    4.6471    0.0000 O   0  0  0  0  0  0  0  0  0  0  0  0
   -3.9510    3.1471    0.0000 O   0  0  0  0  0  0  0  0  0  0  0  0
   -4.5000    5.1962    0.0000 O   0  0  0  0  0  1  0  0  0  0  0  0
    0.0000    6.1962    0.0000 Na  0  0  0  0  0 15  0  0  0  0  0  0
  1  2  1  0
  2  3  1  0
  3  4  1  0
  4  5  1  0
  5  6  1  0
  4  7  1  0
  7  8  1  0
  8  9  2  0
  8 10  1  0
 10 11  1  0
 11 12  1  0
 12 13  2  0
 12 14  1  0
 14 15  1  0
 15 16  1  0
 16 17  1  0
 17 18  1  0
 18 19  1  0
 19 20  1  0
 11 21  1  0
 21 22  2  0
 21 23  2  0
 21 24  1  0
  6  1  1  0
 20 15  1  0
M  CHG  2  24  -1  25   1
M  END
>  <name>  (822) 
sodium;1,4-dicyclohexyloxy-1,4-dioxobutane-2-sulfonate

>  <Outcome>  (822) 
2

>  <SMILES>  (822) 
O=C(CC(C(=O)OC1CCCCC1)S(=O)(=O)[O-])OC1CCCCC1.[Na+]

$$$$

     RDKit          2D

 10 10  0  0  0  0  0  0  0  0999 V2000
   -0.7145    2.8875    0.0000 O   0  0  0  0  0  0  0  0  0  0  0  0
   -0.0000    2.4750    0.0000 C   0  0  0  0  0  0  0  0  0  0  0  0
    0.7145    2.0625    0.0000 N   0  0  0  0  0  0  0  0  0  0  0  0
    0.7145    1.2375    0.0000 C   0  0  0  0  0  0  0  0  0  0  0  0
    1.4289    0.8250    0.0000 C   0  0  0  0  0  0  0  0  0  0  0  0
    1.4289   -0.0000    0.0000 C   0  0  0  0  0  0  0  0  0  0  0  0
    0.7145   -0.4125    0.0000 C   0  0  0  0  0  0  0  0  0  0  0  0
   -0.0000   -0.0000    0.0000 C   0  0  0  0  0  0  0  0  0  0  0  0
   -0.0000    0.8250    0.0000 C   0  0  0  0  0  0  0  0  0  0  0  0
   -0.7145    1.2375    0.0000 Cl  0  0  0  0  0  0  0  0  0  0  0  0
  1  2  2  0
  2  3  2  0
  3  4  1  0
  4  5  2  0
  5  6  1  0
  6  7  2  0
  7  8  1  0
  8  9  2  0
  4  9  1  0
  9 10  1  0
M  END
>  <name>  (823) 
1-chloro-2-isocyanatobenzene

>  <Outcome>  (823) 
1

>  <SMILES>  (823) 
O=C=Nc1ccccc1Cl

$$$$

     RDKit          2D

 10  9  0  0  0  0  0  0  0  0999 V2000
    0.0000    0.0000    0.0000 C   0  0  0  0  0  0  0  0  0  0  0  0
    1.2990    0.7500    0.0000 Si  0  0  0  0  0  4  0  0  0  0  0  0
    2.5981    1.5000    0.0000 C   0  0  0  0  0  0  0  0  0  0  0  0
    2.5981    3.0000    0.0000 C   0  0  0  0  0  0  0  0  0  0  0  0
    3.8971    3.7500    0.0000 Si  0  0  0  0  0  4  0  0  0  0  0  0
    5.1962    4.5000    0.0000 C   0  0  0  0  0  0  0  0  0  0  0  0
    4.6471    2.4510    0.0000 Cl  0  0  0  0  0  0  0  0  0  0  0  0
    3.1471    5.0490    0.0000 Cl  0  0  0  0  0  0  0  0  0  0  0  0
    2.0490   -0.5490    0.0000 Cl  0  0  0  0  0  0  0  0  0  0  0  0
    0.5490    2.0490    0.0000 Cl  0  0  0  0  0  0  0  0  0  0  0  0
  1  2  1  0
  2  3  1  0
  3  4  1  0
  4  5  1  0
  5  6  1  0
  5  7  1  0
  5  8  1  0
  2  9  1  0
  2 10  1  0
M  END
>  <name>  (824) 
dichloro-[2-[dichloro(methyl)silyl]ethyl]-methylsilane

>  <Outcome>  (824) 
2

>  <SMILES>  (824) 
C[Si](Cl)(Cl)CC[Si](C)(Cl)Cl

$$$$

     RDKit          2D

  1  0  0  0  0  0  0  0  0  0999 V2000
    0.0000    0.0000    0.0000 Ba  0  0  0  0  0 15  0  0  0  0  0  0
M  END
>  <name>  (825) 
barium

>  <Outcome>  (825) 
2

>  <SMILES>  (825) 
[Ba]

$$$$

     RDKit          2D

 21 22  0  0  0  0  0  0  0  0999 V2000
    3.5724   -2.8865    0.0000 C   0  0  0  0  0  0  0  0  0  0  0  0
    3.5724   -3.7115    0.0000 C   0  0  0  0  0  0  0  0  0  0  0  0
    2.8579   -4.1240    0.0000 C   0  0  0  0  0  0  0  0  0  0  0  0
    2.1434   -3.7115    0.0000 O   0  0  0  0  0  0  0  0  0  0  0  0
    1.4289   -4.1240    0.0000 C   0  0  0  0  0  0  0  0  0  0  0  0
    1.4289   -4.9490    0.0000 O   0  0  0  0  0  0  0  0  0  0  0  0
    0.7145   -3.7115    0.0000 C   0  0  0  0  0  0  0  0  0  0  0  0
    0.0000   -4.1240    0.0000 C   0  0  0  0  0  0  0  0  0  0  0  0
   -0.7145   -3.7115    0.0000 C   0  0  0  0  0  0  0  0  0  0  0  0
   -0.7145   -2.8865    0.0000 C   0  0  0  0  0  0  0  0  0  0  0  0
    0.0000   -2.4740    0.0000 C   0  0  0  0  0  0  0  0  0  0  0  0
    0.7145   -2.8865    0.0000 C   0  0  0  0  0  0  0  0  0  0  0  0
    4.2868   -4.1240    0.0000 O   0  0  0  0  0  0  0  0  0  0  0  0
    5.0013   -3.7115    0.0000 C   0  0  0  0  0  0  0  0  0  0  0  0
    5.0013   -2.8865    0.0000 O   0  0  0  0  0  0  0  0  0  0  0  0
    5.7158   -4.1240    0.0000 C   0  0  0  0  0  0  0  0  0  0  0  0
    6.4302   -3.7115    0.0000 C   0  0  0  0  0  0  0  0  0  0  0  0
    7.1447   -4.1240    0.0000 C   0  0  0  0  0  0  0  0  0  0  0  0
    7.1447   -4.9490    0.0000 C   0  0  0  0  0  0  0  0  0  0  0  0
    6.4302   -5.3615    0.0000 C   0  0  0  0  0  0  0  0  0  0  0  0
    5.7158   -4.9490    0.0000 C   0  0  0  0  0  0  0  0  0  0  0  0
  1  2  1  0
  2  3  1  0
  3  4  1  0
  4  5  1  0
  5  6  2  0
  5  7  1  0
  7  8  2  0
  8  9  1  0
  9 10  2  0
 10 11  1  0
 11 12  2  0
  7 12  1  0
  2 13  1  0
 13 14  1  0
 14 15  2  0
 14 16  1  0
 16 17  2  0
 17 18  1  0
 18 19  2  0
 19 20  1  0
 20 21  2  0
 16 21  1  0
M  END
>  <name>  (826) 
propane-1,2-diyl dibenzoate

>  <Outcome>  (826) 
0

>  <SMILES>  (826) 
CC(COC(=O)c1ccccc1)OC(=O)c1ccccc1

$$$$

     RDKit          2D

  8  7  0  0  0  0  0  0  0  0999 V2000
    0.0000    0.0000    0.0000 C   0  0  0  0  0  0  0  0  0  0  0  0
    1.5000    0.0000    0.0000 C   0  0  0  0  0  0  0  0  0  0  0  0
    3.0000    0.0000    0.0000 F   0  0  0  0  0  0  0  0  0  0  0  0
    1.5000   -1.5000    0.0000 F   0  0  0  0  0  0  0  0  0  0  0  0
    1.5000    1.5000    0.0000 Cl  0  0  0  0  0  0  0  0  0  0  0  0
   -1.5000    0.0000    0.0000 F   0  0  0  0  0  0  0  0  0  0  0  0
    0.0000    1.5000    0.0000 F   0  0  0  0  0  0  0  0  0  0  0  0
   -0.0000   -1.5000    0.0000 Cl  0  0  0  0  0  0  0  0  0  0  0  0
  1  2  1  0
  2  3  1  0
  2  4  1  0
  2  5  1  0
  1  6  1  0
  1  7  1  0
  1  8  1  0
M  END
>  <name>  (827) 
1,2-dichloro-1,1,2,2-tetrafluoroethane

>  <Outcome>  (827) 
2

>  <SMILES>  (827) 
FC(F)(Cl)C(F)(F)Cl

$$$$

     RDKit          2D

  8  7  0  0  0  0  0  0  0  0999 V2000
    0.0000    0.0000    0.0000 C   0  0  0  0  0  0  0  0  0  0  0  0
    1.2990    0.7500    0.0000 C   0  0  0  0  0  0  0  0  0  0  0  0
    1.2990    2.2500    0.0000 O   0  0  0  0  0  0  0  0  0  0  0  0
    2.5981   -0.0000    0.0000 O   0  0  0  0  0  0  0  0  0  0  0  0
    3.8971    0.7500    0.0000 C   0  0  0  0  0  0  0  0  0  0  0  0
    4.6471   -0.5490    0.0000 C   0  0  0  0  0  0  0  0  0  0  0  0
    3.1471    2.0490    0.0000 C   0  0  0  0  0  0  0  0  0  0  0  0
    5.1962    1.5000    0.0000 C   0  0  0  0  0  0  0  0  0  0  0  0
  1  2  1  0
  2  3  2  0
  2  4  1  0
  4  5  1  0
  5  6  1  0
  5  7  1  0
  5  8  1  0
M  END
>  <name>  (828) 
tert-butyl acetate

>  <Outcome>  (828) 
2

>  <SMILES>  (828) 
CC(=O)OC(C)(C)C

$$$$

     RDKit          2D

  9  9  0  0  0  0  0  0  0  0999 V2000
    2.1732    0.0684    0.0000 C   0  0  0  0  0  0  0  0  0  0  0  0
    1.4588    0.4809    0.0000 C   0  0  0  0  0  0  0  0  0  0  0  0
    0.7443    0.0684    0.0000 C   0  0  0  0  0  0  0  0  0  0  0  0
    0.0298    0.4809    0.0000 C   0  0  0  0  0  0  0  0  0  0  0  0
   -0.6847    0.0684    0.0000 C   0  0  0  0  0  0  0  0  0  0  0  0
   -0.6847   -0.7566    0.0000 C   0  0  0  0  0  0  0  0  0  0  0  0
   -1.3991   -1.1691    0.0000 C   0  0  0  0  0  0  0  0  0  0  0  0
    0.0298   -1.1691    0.0000 N   0  0  0  0  0  0  0  0  0  0  0  0
    0.7443   -0.7566    0.0000 C   0  0  0  0  0  0  0  0  0  0  0  0
  1  2  1  0
  2  3  1  0
  4  3  2  0
  5  4  1  0
  6  5  2  0
  6  7  1  0
  8  6  1  0
  9  8  2  0
  3  9  1  0
M  END
>  <name>  (829) 
5-Ethyl-2-methylpyridine

>  <Outcome>  (829) 
1

>  <SMILES>  (829) 
CCc1ccc(C)nc1

$$$$

     RDKit          2D

 12 11  0  0  0  0  0  0  0  0999 V2000
    2.9394    2.5581    0.0000 C   0  0  0  0  0  0  0  0  0  0  0  0
    3.6538    2.1456    0.0000 C   0  0  0  0  0  0  0  0  0  0  0  0
    4.3683    2.5581    0.0000 C   0  0  0  0  0  0  0  0  0  0  0  0
    5.0828    2.1456    0.0000 C   0  0  0  0  0  0  0  0  0  0  0  0
    5.7972    2.5581    0.0000 C   0  0  0  0  0  0  0  0  0  0  0  0
    5.7972    3.3831    0.0000 C   0  0  0  0  0  0  0  0  0  0  0  0
    6.5117    3.7956    0.0000 C   0  0  0  0  0  0  0  0  0  0  0  0
    6.5117    2.1456    0.0000 C   0  0  0  0  0  0  0  0  0  0  0  0
    6.5117    1.3206    0.0000 O   0  0  0  0  0  0  0  0  0  0  0  0
    7.2262    2.5581    0.0000 O   0  0  0  0  0  0  0  0  0  0  0  0
    7.9407    2.1456    0.0000 C   0  0  0  0  0  0  0  0  0  0  0  0
    8.6551    2.5581    0.0000 C   0  0  0  0  0  0  0  0  0  0  0  0
  1  2  1  0
  2  3  1  0
  3  4  1  0
  4  5  1  0
  5  6  1  0
  6  7  1  0
  5  8  1  0
  8  9  2  0
  8 10  1  0
 10 11  1  0
 11 12  1  0
M  END
>  <name>  (830) 
ethyl 2-ethylhexanoate

>  <Outcome>  (830) 
1

>  <SMILES>  (830) 
CCCCC(CC)C(=O)OCC

$$$$

     RDKit          2D

 10 10  0  0  0  0  0  0  0  0999 V2000
   -0.7145    2.8875    0.0000 O   0  0  0  0  0  0  0  0  0  0  0  0
   -0.0000    2.4750    0.0000 C   0  0  0  0  0  0  0  0  0  0  0  0
    0.7145    2.0625    0.0000 N   0  0  0  0  0  0  0  0  0  0  0  0
    0.7145    1.2375    0.0000 C   0  0  0  0  0  0  0  0  0  0  0  0
    1.4289    0.8250    0.0000 C   0  0  0  0  0  0  0  0  0  0  0  0
    1.4289   -0.0000    0.0000 C   0  0  0  0  0  0  0  0  0  0  0  0
    0.7145   -0.4125    0.0000 C   0  0  0  0  0  0  0  0  0  0  0  0
    0.7145   -1.2375    0.0000 Cl  0  0  0  0  0  0  0  0  0  0  0  0
   -0.0000    0.0000    0.0000 C   0  0  0  0  0  0  0  0  0  0  0  0
   -0.0000    0.8250    0.0000 C   0  0  0  0  0  0  0  0  0  0  0  0
  1  2  2  0
  2  3  2  0
  3  4  1  0
  4  5  2  0
  5  6  1  0
  6  7  2  0
  7  8  1  0
  7  9  1  0
  9 10  2  0
  4 10  1  0
M  END
>  <name>  (831) 
1-chloro-4-isocyanatobenzene

>  <Outcome>  (831) 
1

>  <SMILES>  (831) 
O=C=Nc1ccc(Cl)cc1

$$$$

     RDKit          2D

 32 34  0  0  0  0  0  0  0  0999 V2000
   -2.0775    0.1057    0.0000 O   0  0  0  0  0  0  0  0  0  0  0  0
   -1.3630   -0.3068    0.0000 C   0  0  0  0  0  0  0  0  0  0  0  0
   -0.6485   -0.7193    0.0000 N   0  0  0  0  0  0  0  0  0  0  0  0
   -0.6485   -1.5443    0.0000 C   0  0  0  0  0  0  0  0  0  0  0  0
    0.0659   -1.9568    0.0000 C   0  0  0  0  0  0  0  0  0  0  0  0
    0.0659   -2.7818    0.0000 C   0  0  0  0  0  0  0  0  0  0  0  0
   -0.6485   -3.1943    0.0000 C   0  0  0  0  0  0  0  0  0  0  0  0
   -0.6485   -4.0193    0.0000 O   0  0  0  0  0  0  0  0  0  0  0  0
    0.0659   -4.4318    0.0000 P   0  0  0  0  0  0  0  0  0  0  0  0
   -0.3466   -5.1463    0.0000 S   0  0  0  0  0  0  0  0  0  0  0  0
    0.7804   -4.8443    0.0000 O   0  0  0  0  0  0  0  0  0  0  0  0
    0.7804   -5.6693    0.0000 C   0  0  0  0  0  0  0  0  0  0  0  0
    1.4949   -6.0818    0.0000 C   0  0  0  0  0  0  0  0  0  0  0  0
    1.4949   -6.9068    0.0000 C   0  0  0  0  0  0  0  0  0  0  0  0
    0.7804   -7.3193    0.0000 C   0  0  0  0  0  0  0  0  0  0  0  0
    0.7804   -8.1443    0.0000 N   0  0  0  0  0  0  0  0  0  0  0  0
    1.4949   -8.5568    0.0000 C   0  0  0  0  0  0  0  0  0  0  0  0
    2.2093   -8.9693    0.0000 O   0  0  0  0  0  0  0  0  0  0  0  0
    0.0659   -6.9068    0.0000 C   0  0  0  0  0  0  0  0  0  0  0  0
    0.0659   -6.0818    0.0000 C   0  0  0  0  0  0  0  0  0  0  0  0
    0.4784   -3.7173    0.0000 O   0  0  0  0  0  0  0  0  0  0  0  0
    1.3034   -3.7173    0.0000 C   0  0  0  0  0  0  0  0  0  0  0  0
    1.7159   -3.0029    0.0000 C   0  0  0  0  0  0  0  0  0  0  0  0
    2.5409   -3.0029    0.0000 C   0  0  0  0  0  0  0  0  0  0  0  0
    2.9534   -3.7173    0.0000 C   0  0  0  0  0  0  0  0  0  0  0  0
    3.7784   -3.7173    0.0000 N   0  0  0  0  0  0  0  0  0  0  0  0
    4.1909   -4.4318    0.0000 C   0  0  0  0  0  0  0  0  0  0  0  0
    4.6034   -5.1463    0.0000 O   0  0  0  0  0  0  0  0  0  0  0  0
    2.5409   -4.4318    0.0000 C   0  0  0  0  0  0  0  0  0  0  0  0
    1.7159   -4.4318    0.0000 C   0  0  0  0  0  0  0  0  0  0  0  0
   -1.3630   -2.7818    0.0000 C   0  0  0  0  0  0  0  0  0  0  0  0
   -1.3630   -1.9568    0.0000 C   0  0  0  0  0  0  0  0  0  0  0  0
  1  2  2  0
  2  3  2  0
  3  4  1  0
  4  5  2  0
  5  6  1  0
  6  7  2  0
  7  8  1  0
  8  9  1  0
  9 10  2  0
  9 11  1  0
 11 12  1  0
 12 13  2  0
 13 14  1  0
 14 15  2  0
 15 16  1  0
 16 17  2  0
 17 18  2  0
 15 19  1  0
 19 20  2  0
 12 20  1  0
  9 21  1  0
 21 22  1  0
 22 23  2  0
 23 24  1  0
 24 25  2  0
 25 26  1  0
 26 27  2  0
 27 28  2  0
 25 29  1  0
 29 30  2  0
 22 30  1  0
  7 31  1  0
 31 32  2  0
  4 32  1  0
M  END
>  <name>  (832) 
bis(4-isocyanatophenyl) [(4-isocyanatophenyl)sulfanyl]phosphonate

>  <Outcome>  (832) 
0

>  <SMILES>  (832) 
O=C=Nc1ccc(OP(=S)(Oc2ccc(N=C=O)cc2)Oc2ccc(N=C=O)cc2)cc1

$$$$

     RDKit          2D

  7  6  0  0  0  0  0  0  0  0999 V2000
    1.7605    1.8430    0.0000 C   0  0  0  0  0  0  0  0  0  0  0  0
    2.4750    1.4305    0.0000 C   0  0  0  0  0  0  0  0  0  0  0  0
    3.1895    1.8430    0.0000 C   0  0  0  0  0  0  0  0  0  0  0  0
    3.9039    1.4305    0.0000 C   0  0  0  0  0  0  0  0  0  0  0  0
    4.6184    1.8430    0.0000 C   0  0  0  0  0  0  0  0  0  0  0  0
    5.3329    1.4305    0.0000 C   0  0  0  0  0  0  0  0  0  0  0  0
    6.0474    1.8430    0.0000 C   0  0  0  0  0  0  0  0  0  0  0  0
  1  2  1  0
  2  3  1  0
  3  4  1  0
  4  5  1  0
  5  6  1  0
  6  7  1  0
M  END
>  <name>  (833) 
heptane

>  <Outcome>  (833) 
0

>  <SMILES>  (833) 
CCCCCCC

$$$$

     RDKit          2D

  8  8  0  0  0  0  0  0  0  0999 V2000
    1.5000    0.0000    0.0000 C   0  0  0  0  0  0  0  0  0  0  0  0
    0.7500   -1.2990    0.0000 C   0  0  0  0  0  0  0  0  0  0  0  0
    1.5000   -2.5981    0.0000 O   0  0  0  0  0  0  0  0  0  0  0  0
   -0.7500   -1.2990    0.0000 O   0  0  0  0  0  0  0  0  0  0  0  0
   -1.5000    0.0000    0.0000 C   0  0  0  0  0  0  0  0  0  0  0  0
   -0.7500    1.2990    0.0000 C   0  0  0  0  0  0  0  0  0  0  0  0
   -1.5000    2.5981    0.0000 O   0  0  0  0  0  0  0  0  0  0  0  0
    0.7500    1.2990    0.0000 O   0  0  0  0  0  0  0  0  0  0  0  0
  1  2  1  0
  2  3  2  0
  2  4  1  0
  4  5  1  0
  5  6  1  0
  6  7  2  0
  6  8  1  0
  8  1  1  0
M  END
>  <name>  (834) 
1,4-dioxane-2,5-dione

>  <Outcome>  (834) 
2

>  <SMILES>  (834) 
O=C1COC(=O)CO1

$$$$

     RDKit          2D

  9  9  0  0  0  0  0  0  0  0999 V2000
    2.2323    0.0058    0.0000 C   0  0  0  0  0  0  0  0  0  0  0  0
    1.5178    0.4183    0.0000 C   0  0  0  0  0  0  0  0  0  0  0  0
    1.5178    1.2433    0.0000 C   0  0  0  0  0  0  0  0  0  0  0  0
    0.8033    0.0058    0.0000 C   0  0  0  0  0  0  0  0  0  0  0  0
    0.0888    0.4183    0.0000 C   0  0  0  0  0  0  0  0  0  0  0  0
   -0.6256    0.0058    0.0000 C   0  0  0  0  0  0  0  0  0  0  0  0
   -0.6256   -0.8192    0.0000 C   0  0  0  0  0  0  0  0  0  0  0  0
    0.0888   -1.2317    0.0000 C   0  0  0  0  0  0  0  0  0  0  0  0
    0.8033   -0.8192    0.0000 C   0  0  0  0  0  0  0  0  0  0  0  0
  1  2  1  0
  2  3  2  0
  2  4  1  0
  5  4  2  0
  6  5  1  0
  7  6  2  0
  8  7  1  0
  9  8  2  0
  4  9  1  0
M  END
>  <name>  (835) 
alpha-Methylstyrene

>  <Outcome>  (835) 
0

>  <SMILES>  (835) 
C=C(C)c1ccccc1

$$$$

     RDKit          2D

 20 19  0  0  0  0  0  0  0  0999 V2000
    7.8785    5.4408    0.0000 C   0  0  0  0  0  0  0  0  0  0  0  0
    8.5930    5.0283    0.0000 C   0  0  0  0  0  0  0  0  0  0  0  0
    9.3074    5.4408    0.0000 C   0  0  0  0  0  0  0  0  0  0  0  0
   10.0219    5.0283    0.0000 C   0  0  0  0  0  0  0  0  0  0  0  0
   10.7364    5.4408    0.0000 C   0  0  0  0  0  0  0  0  0  0  0  0
   11.4508    5.0283    0.0000 C   0  0  0  0  0  0  0  0  0  0  0  0
   12.1653    5.4408    0.0000 C   0  0  0  0  0  0  0  0  0  0  0  0
   12.8798    5.0283    0.0000 C   0  0  0  0  0  0  0  0  0  0  0  0
   13.5943    5.4408    0.0000 C   0  0  0  0  0  0  0  0  0  0  0  0
   14.3087    5.0283    0.0000 C   0  0  0  0  0  0  0  0  0  0  0  0
   15.0232    5.4408    0.0000 O   0  0  0  0  0  0  0  0  0  0  0  0
   15.7377    5.0283    0.0000 C   0  0  0  0  0  0  0  0  0  0  0  0
   15.7377    4.2033    0.0000 O   0  0  0  0  0  0  0  0  0  0  0  0
   16.4521    5.4408    0.0000 C   0  0  0  0  0  0  0  0  0  0  0  0
   16.4521    6.2658    0.0000 C   0  0  0  0  0  0  0  0  0  0  0  0
   17.1666    6.6783    0.0000 C   0  0  0  0  0  0  0  0  0  0  0  0
   17.1666    5.0283    0.0000 C   0  0  0  0  0  0  0  0  0  0  0  0
   17.8811    5.4408    0.0000 C   0  0  0  0  0  0  0  0  0  0  0  0
   18.5956    5.0283    0.0000 C   0  0  0  0  0  0  0  0  0  0  0  0
   19.3100    5.4408    0.0000 C   0  0  0  0  0  0  0  0  0  0  0  0
  1  2  1  0
  2  3  1  0
  3  4  1  0
  4  5  1  0
  5  6  1  0
  6  7  1  0
  7  8  1  0
  8  9  1  0
  9 10  1  0
 10 11  1  0
 11 12  1  0
 12 13  2  0
 12 14  1  0
 14 15  1  0
 15 16  1  0
 14 17  1  0
 17 18  1  0
 18 19  1  0
 19 20  1  0
M  END
>  <name>  (836) 
decyl 2-ethylhexanoate

>  <Outcome>  (836) 
0

>  <SMILES>  (836) 
CCCCCCCCCCOC(=O)C(CC)CCCC

$$$$

     RDKit          2D

  7  8  0  0  0  0  0  0  0  0999 V2000
   -0.2268    0.5418    0.0000 C   0  0  0  0  0  0  0  0  0  0  0  0
   -0.2268   -0.2832    0.0000 C   0  0  0  0  0  0  0  0  0  0  0  0
    0.4877   -0.6957    0.0000 C   0  0  0  0  0  0  0  0  0  0  0  0
    1.2022   -0.2832    0.0000 C   0  0  0  0  0  0  0  0  0  0  0  0
    1.2022    0.5418    0.0000 C   0  0  0  0  0  0  0  0  0  0  0  0
    0.4877    0.9543    0.0000 C   0  0  0  0  0  0  0  0  0  0  0  0
    0.2814    0.1293    0.0000 C   0  0  0  0  0  0  0  0  0  0  0  0
  1  2  2  0
  2  3  1  0
  3  4  1  0
  4  5  1  0
  5  6  1  0
  1  6  1  0
  6  7  1  0
  3  7  1  0
M  END
>  <name>  (837) 
bicyclo[2.2.1]hept-2-ene

>  <Outcome>  (837) 
0

>  <SMILES>  (837) 
C1=CC2CCC1C2

$$$$

     RDKit          2D

 14 13  0  0  0  0  0  0  0  0999 V2000
    0.0000    0.0000    0.0000 C   0  0  0  0  0  0  0  0  0  0  0  0
    1.2990    0.7500    0.0000 C   0  0  0  0  0  0  0  0  0  0  0  0
    2.5981   -0.0000    0.0000 C   0  0  0  0  0  0  0  0  0  0  0  0
    3.8971    0.7500    0.0000 C   0  0  0  0  0  0  0  0  0  0  0  0
    5.1962   -0.0000    0.0000 C   0  0  0  0  0  0  0  0  0  0  0  0
    6.4952    0.7500    0.0000 C   0  0  0  0  0  0  0  0  0  0  0  0
    3.8971    2.2500    0.0000 C   0  0  0  0  0  0  0  0  0  0  0  0
    5.1962    3.0000    0.0000 C   0  0  0  0  0  0  0  0  0  0  0  0
    5.1962    4.5000    0.0000 C   0  0  0  0  0  0  0  0  0  0  0  0
    6.4952    5.2500    0.0000 C   0  0  0  0  0  0  0  0  0  0  0  0
    6.4952    6.7500    0.0000 C   0  0  0  0  0  0  0  0  0  0  0  0
    7.7942    7.5000    0.0000 C   0  0  0  0  0  0  0  0  0  0  0  0
    7.7942    9.0000    0.0000 C   0  0  0  0  0  0  0  0  0  0  0  0
    9.0933    9.7500    0.0000 N   0  0  0  0  0  0  0  0  0  0  0  0
  1  2  1  0
  2  3  1  0
  3  4  1  0
  4  5  1  0
  5  6  1  0
  4  7  1  0
  7  8  1  0
  8  9  1  0
  9 10  1  0
 10 11  1  0
 11 12  1  0
 12 13  1  0
 13 14  1  0
M  END
>  <name>  (838) 
8-ethylundecan-1-amine

>  <Outcome>  (838) 
2

>  <SMILES>  (838) 
CCCC(CC)CCCCCCCN

$$$$

     RDKit          2D

  8  7  0  0  0  0  0  0  0  0999 V2000
    1.0461    1.4289    0.0000 C   0  0  0  0  0  0  0  0  0  0  0  0
    1.7605    1.8414    0.0000 C   0  0  0  0  0  0  0  0  0  0  0  0
    2.4750    1.4289    0.0000 C   0  0  0  0  0  0  0  0  0  0  0  0
    3.1895    1.8414    0.0000 C   0  0  0  0  0  0  0  0  0  0  0  0
    3.9040    1.4289    0.0000 C   0  0  0  0  0  0  0  0  0  0  0  0
    4.6184    1.8414    0.0000 C   0  0  0  0  0  0  0  0  0  0  0  0
    5.3329    1.4289    0.0000 C   0  0  0  0  0  0  0  0  0  0  0  0
    6.0474    1.8414    0.0000 C   0  0  0  0  0  0  0  0  0  0  0  0
  1  2  1  0
  2  3  1  0
  3  4  1  0
  4  5  1  0
  5  6  1  0
  6  7  1  0
  7  8  1  0
M  END
>  <name>  (839) 
octane

>  <Outcome>  (839) 
0

>  <SMILES>  (839) 
CCCCCCCC

$$$$

     RDKit          2D

  9  8  0  0  0  0  0  0  0  0999 V2000
    0.0432   -1.4206    0.0000 C   0  0  0  0  0  0  0  0  0  0  0  0
    0.8682   -1.4206    0.0000 C   0  0  0  0  0  0  0  0  0  0  0  0
    1.2807   -0.7062    0.0000 N   0  0  0  0  0  0  0  0  0  0  0  0
    2.1057   -0.7062    0.0000 C   0  0  0  0  0  0  0  0  0  0  0  0
    2.5182    0.0083    0.0000 C   0  0  0  0  0  0  0  0  0  0  0  0
    2.5182   -1.4206    0.0000 C   0  0  0  0  0  0  0  0  0  0  0  0
    0.8682    0.0083    0.0000 C   0  0  0  0  0  0  0  0  0  0  0  0
    1.2807    0.7228    0.0000 C   0  0  0  0  0  0  0  0  0  0  0  0
    0.0432    0.0083    0.0000 C   0  0  0  0  0  0  0  0  0  0  0  0
  1  2  1  0
  2  3  1  0
  3  4  1  0
  4  5  1  0
  4  6  1  0
  3  7  1  0
  7  8  1  0
  7  9  1  0
M  END
>  <name>  (840) 
ethylbis(propan-2-yl)amine

>  <Outcome>  (840) 
1

>  <SMILES>  (840) 
CCN(C(C)C)C(C)C

$$$$

     RDKit          2D

 19 18  0  0  0  0  0  0  0  0999 V2000
    1.5000    0.0000    0.0000 C   0  0  0  0  0  0  0  0  0  0  0  0
    0.7500   -1.2990    0.0000 C   0  0  0  0  0  0  0  0  0  0  0  0
   -0.7500   -1.2990    0.0000 C   0  0  0  0  0  0  0  0  0  0  0  0
   -1.5000    0.0000    0.0000 C   0  0  0  0  0  0  0  0  0  0  0  0
   -0.7500    1.2990    0.0000 C   0  0  0  0  0  0  0  0  0  0  0  0
    0.7500    1.2990    0.0000 C   0  0  0  0  0  0  0  0  0  0  0  0
   -3.0000    0.0000    0.0000 C   0  0  0  0  0  0  0  0  0  0  0  0
   -3.7500   -1.2990    0.0000 O   0  0  0  0  0  0  0  0  0  0  0  0
   -3.7500    1.2990    0.0000 O   0  0  0  0  0  1  0  0  0  0  0  0
    1.5000    3.5981    0.0000 C   0  0  0  0  0  0  0  0  0  0  0  0
    0.7500    2.2990    0.0000 C   0  0  0  0  0  0  0  0  0  0  0  0
   -0.7500    2.2990    0.0000 C   0  0  0  0  0  0  0  0  0  0  0  0
   -1.5000    3.5981    0.0000 C   0  0  0  0  0  0  0  0  0  0  0  0
   -0.7500    4.8971    0.0000 C   0  0  0  0  0  0  0  0  0  0  0  0
    0.7500    4.8971    0.0000 C   0  0  0  0  0  0  0  0  0  0  0  0
   -3.0000    3.5981    0.0000 C   0  0  0  0  0  0  0  0  0  0  0  0
   -3.7500    2.2990    0.0000 O   0  0  0  0  0  0  0  0  0  0  0  0
   -3.7500    4.8971    0.0000 O   0  0  0  0  0  1  0  0  0  0  0  0
    2.5000    0.0000    0.0000 Ni  0  0  0  0  0 15  0  0  0  0  0  0
  1  2  2  0
  2  3  1  0
  3  4  2  0
  4  5  1  0
  5  6  2  0
  4  7  1  0
  7  8  2  0
  7  9  1  0
 10 11  2  0
 11 12  1  0
 12 13  2  0
 13 14  1  0
 14 15  2  0
 13 16  1  0
 16 17  2  0
 16 18  1  0
  6  1  1  0
 15 10  1  0
M  CHG  3   9  -1  18  -1  19   2
M  END
>  <name>  (841) 
nickel(2+);dibenzoate

>  <Outcome>  (841) 
2

>  <SMILES>  (841) 
O=C([O-])c1ccccc1.O=C([O-])c1ccccc1.[Ni+2]

$$$$

     RDKit          2D

  5  4  0  0  0  0  0  0  0  0999 V2000
    0.8250    1.4289    0.0000 C   0  0  0  0  0  0  0  0  0  0  0  0
    1.2375    0.7144    0.0000 O   0  0  0  0  0  0  0  0  0  0  0  0
    0.8250   -0.0000    0.0000 C   0  0  0  0  0  0  0  0  0  0  0  0
    1.2375   -0.7145    0.0000 O   0  0  0  0  0  0  0  0  0  0  0  0
    0.0000   -0.0000    0.0000 Cl  0  0  0  0  0  0  0  0  0  0  0  0
  1  2  1  0
  2  3  1  0
  3  4  2  0
  3  5  1  0
M  END
>  <name>  (842) 
methyl chlorocarbonate

>  <Outcome>  (842) 
1

>  <SMILES>  (842) 
COC(=O)Cl

$$$$

     RDKit          2D

  9  9  0  0  0  0  0  0  0  0999 V2000
    1.4227    0.7383    0.0000 O   0  0  0  0  0  0  0  0  0  0  0  0
    0.7083    0.3258    0.0000 C   0  0  0  0  0  0  0  0  0  0  0  0
   -0.0062    0.7383    0.0000 C   0  0  0  0  0  0  0  0  0  0  0  0
   -0.7207    0.3258    0.0000 C   0  0  0  0  0  0  0  0  0  0  0  0
   -1.4352    0.7383    0.0000 Cl  0  0  0  0  0  0  0  0  0  0  0  0
   -0.7207   -0.4992    0.0000 C   0  0  0  0  0  0  0  0  0  0  0  0
   -0.0062   -0.9117    0.0000 C   0  0  0  0  0  0  0  0  0  0  0  0
    0.7083   -0.4992    0.0000 C   0  0  0  0  0  0  0  0  0  0  0  0
    1.4227   -0.9117    0.0000 Cl  0  0  0  0  0  0  0  0  0  0  0  0
  1  2  1  0
  3  2  2  0
  4  3  1  0
  4  5  1  0
  6  4  2  0
  7  6  1  0
  8  7  2  0
  8  9  1  0
  2  8  1  0
M  END
>  <name>  (843) 
2,5-Dichlorophenol

>  <Outcome>  (843) 
0

>  <SMILES>  (843) 
Oc1cc(Cl)ccc1Cl

$$$$

     RDKit          2D

  6  5  0  0  0  0  0  0  0  0999 V2000
    2.4734   -1.4317    0.0000 C   0  0  0  0  0  0  0  0  0  0  0  0
    2.0609   -0.7172    0.0000 O   0  0  0  0  0  0  0  0  0  0  0  0
    1.2359   -0.7172    0.0000 C   0  0  0  0  0  0  0  0  0  0  0  0
    0.8234   -1.4317    0.0000 O   0  0  0  0  0  0  0  0  0  0  0  0
    0.8234   -0.0028    0.0000 C   0  0  0  0  0  0  0  0  0  0  0  0
   -0.0016   -0.0028    0.0000 Cl  0  0  0  0  0  0  0  0  0  0  0  0
  1  2  1  0
  2  3  1  0
  3  4  2  0
  3  5  1  0
  5  6  1  0
M  END
>  <name>  (844) 
methyl 2-chloroacetate

>  <Outcome>  (844) 
1

>  <SMILES>  (844) 
COC(=O)CCl

$$$$

     RDKit          2D

  7  7  0  0  0  0  0  0  0  0999 V2000
    1.2760    0.0000    0.0000 C   0  0  0  0  0  0  0  0  0  0  0  0
    0.3943    1.2135    0.0000 C   0  0  0  0  0  0  0  0  0  0  0  0
   -1.0323    0.7500    0.0000 O   0  0  0  0  0  0  0  0  0  0  0  0
   -1.0323   -0.7500    0.0000 S   0  0  0  0  0  0  0  0  0  0  0  0
   -1.3442   -2.2172    0.0000 O   0  0  0  0  0  0  0  0  0  0  0  0
   -2.5241   -0.5932    0.0000 O   0  0  0  0  0  0  0  0  0  0  0  0
    0.3943   -1.2135    0.0000 C   0  0  0  0  0  0  0  0  0  0  0  0
  1  2  1  0
  2  3  1  0
  3  4  1  0
  4  5  2  0
  4  6  2  0
  4  7  1  0
  7  1  1  0
M  END
>  <name>  (845) 
oxathiolane 2,2-dioxide

>  <Outcome>  (845) 
2

>  <SMILES>  (845) 
O=S1(=O)CCCO1

$$$$

     RDKit          2D

  9  9  0  0  0  0  0  0  0  0999 V2000
   -0.0020    2.4738    0.0000 Cl  0  0  0  0  0  0  0  0  0  0  0  0
    0.7125    2.0613    0.0000 C   0  0  0  0  0  0  0  0  0  0  0  0
    0.7125    1.2363    0.0000 C   0  0  0  0  0  0  0  0  0  0  0  0
    1.4269    0.8238    0.0000 C   0  0  0  0  0  0  0  0  0  0  0  0
    1.4269   -0.0012    0.0000 C   0  0  0  0  0  0  0  0  0  0  0  0
    0.7125   -0.4137    0.0000 C   0  0  0  0  0  0  0  0  0  0  0  0
   -0.0020   -0.0012    0.0000 C   0  0  0  0  0  0  0  0  0  0  0  0
   -0.0020    0.8238    0.0000 C   0  0  0  0  0  0  0  0  0  0  0  0
   -0.7165    1.2363    0.0000 Cl  0  0  0  0  0  0  0  0  0  0  0  0
  1  2  1  0
  2  3  1  0
  3  4  2  0
  4  5  1  0
  5  6  2  0
  6  7  1  0
  7  8  2  0
  3  8  1  0
  8  9  1  0
M  END
>  <name>  (846) 
1-chloro-2-(chloromethyl)benzene

>  <Outcome>  (846) 
1

>  <SMILES>  (846) 
ClCc1ccccc1Cl

$$$$

     RDKit          2D

 19 18  0  0  0  0  0  0  0  0999 V2000
    3.8368   -1.0542    0.0000 C   0  0  0  0  0  0  0  0  0  0  0  0
    3.8368   -0.2292    0.0000 N   0  0  0  0  0  0  0  0  0  0  0  0
    4.5513    0.1833    0.0000 C   0  0  0  0  0  0  0  0  0  0  0  0
    3.1224    0.1833    0.0000 C   0  0  0  0  0  0  0  0  0  0  0  0
    3.1224    1.0083    0.0000 C   0  0  0  0  0  0  0  0  0  0  0  0
    2.4079    1.4208    0.0000 C   0  0  0  0  0  0  0  0  0  0  0  0
    2.4079    2.2458    0.0000 N   0  0  0  0  0  0  0  0  0  0  0  0
    1.6934    2.6583    0.0000 C   0  0  0  0  0  0  0  0  0  0  0  0
    1.6934    3.4833    0.0000 C   0  0  0  0  0  0  0  0  0  0  0  0
    0.9789    3.8958    0.0000 C   0  0  0  0  0  0  0  0  0  0  0  0
    0.9789    4.7208    0.0000 N   0  0  0  0  0  0  0  0  0  0  0  0
    0.2645    5.1333    0.0000 C   0  0  0  0  0  0  0  0  0  0  0  0
    1.6934    5.1333    0.0000 C   0  0  0  0  0  0  0  0  0  0  0  0
    3.1224    2.6583    0.0000 C   0  0  0  0  0  0  0  0  0  0  0  0
    3.1224    3.4833    0.0000 C   0  0  0  0  0  0  0  0  0  0  0  0
    3.8368    3.8958    0.0000 C   0  0  0  0  0  0  0  0  0  0  0  0
    3.8368    4.7208    0.0000 N   0  0  0  0  0  0  0  0  0  0  0  0
    3.1224    5.1333    0.0000 C   0  0  0  0  0  0  0  0  0  0  0  0
    4.5513    5.1333    0.0000 C   0  0  0  0  0  0  0  0  0  0  0  0
  1  2  1  0
  2  3  1  0
  2  4  1  0
  4  5  1  0
  5  6  1  0
  6  7  1  0
  7  8  1  0
  8  9  1  0
  9 10  1  0
 10 11  1  0
 11 12  1  0
 11 13  1  0
  7 14  1  0
 14 15  1  0
 15 16  1  0
 16 17  1  0
 17 18  1  0
 17 19  1  0
M  END
>  <name>  (847) 
N,N-Bis[3-(dimethylamino)propyl]-N,N-dimethylpropane-1,3-diamine

>  <Outcome>  (847) 
1

>  <SMILES>  (847) 
CN(C)CCCN(CCCN(C)C)CCCN(C)C

$$$$

     RDKit          2D

 10 10  0  0  0  0  0  0  0  0999 V2000
   -0.7145    2.8875    0.0000 O   0  0  0  0  0  0  0  0  0  0  0  0
   -0.0000    2.4750    0.0000 C   0  0  0  0  0  0  0  0  0  0  0  0
    0.7145    2.0625    0.0000 N   0  0  0  0  0  0  0  0  0  0  0  0
    0.7145    1.2375    0.0000 C   0  0  0  0  0  0  0  0  0  0  0  0
    1.4289    0.8250    0.0000 C   0  0  0  0  0  0  0  0  0  0  0  0
    1.4289    0.0000    0.0000 C   0  0  0  0  0  0  0  0  0  0  0  0
    0.7145   -0.4125    0.0000 C   0  0  0  0  0  0  0  0  0  0  0  0
   -0.0000    0.0000    0.0000 C   0  0  0  0  0  0  0  0  0  0  0  0
   -0.7145   -0.4125    0.0000 Cl  0  0  0  0  0  0  0  0  0  0  0  0
   -0.0000    0.8250    0.0000 C   0  0  0  0  0  0  0  0  0  0  0  0
  1  2  2  0
  2  3  2  0
  3  4  1  0
  4  5  2  0
  5  6  1  0
  6  7  2  0
  7  8  1  0
  8  9  1  0
  8 10  2  0
  4 10  1  0
M  END
>  <name>  (848) 
1-chloro-3-isocyanatobenzene

>  <Outcome>  (848) 
1

>  <SMILES>  (848) 
O=C=Nc1cccc(Cl)c1

$$$$

     RDKit          2D

 37 36  0  0  0  0  0  0  0  0999 V2000
   -5.3977    0.1390    0.0000 C   0  0  0  0  0  0  0  0  0  0  0  0
   -4.5727    0.1390    0.0000 C   0  0  0  0  0  0  0  0  0  0  0  0
   -4.1602   -0.5755    0.0000 C   0  0  0  0  0  0  0  0  0  0  0  0
   -3.3352   -0.5755    0.0000 C   0  0  0  0  0  0  0  0  0  0  0  0
   -2.9227   -1.2899    0.0000 C   0  0  0  0  0  0  0  0  0  0  0  0
   -2.0977   -1.2899    0.0000 C   0  0  0  0  0  0  0  0  0  0  0  0
   -1.6852   -2.0044    0.0000 C   0  0  0  0  0  0  0  0  0  0  0  0
   -0.8602   -2.0044    0.0000 O   0  0  0  0  0  0  0  0  0  0  0  0
   -0.4477   -2.7189    0.0000 C   0  0  0  0  0  0  0  0  0  0  0  0
    0.3773   -2.7189    0.0000 C   0  0  0  0  0  0  0  0  0  0  0  0
    1.2023   -2.7189    0.0000 C   0  0  0  0  0  0  0  0  0  0  0  0
    1.6148   -3.4334    0.0000 O   0  0  0  0  0  0  0  0  0  0  0  0
    2.4398   -3.4334    0.0000 C   0  0  0  0  0  0  0  0  0  0  0  0
    2.8523   -4.1478    0.0000 C   0  0  0  0  0  0  0  0  0  0  0  0
    3.6773   -4.1478    0.0000 C   0  0  0  0  0  0  0  0  0  0  0  0
    4.0898   -4.8623    0.0000 C   0  0  0  0  0  0  0  0  0  0  0  0
    4.9148   -4.8623    0.0000 C   0  0  0  0  0  0  0  0  0  0  0  0
    5.3273   -5.5768    0.0000 C   0  0  0  0  0  0  0  0  0  0  0  0
    6.1523   -5.5768    0.0000 C   0  0  0  0  0  0  0  0  0  0  0  0
    0.3773   -3.5439    0.0000 C   0  0  0  0  0  0  0  0  0  0  0  0
    1.0918   -3.9564    0.0000 O   0  0  0  0  0  0  0  0  0  0  0  0
    1.0918   -4.7814    0.0000 C   0  0  0  0  0  0  0  0  0  0  0  0
    1.8063   -5.1939    0.0000 C   0  0  0  0  0  0  0  0  0  0  0  0
    1.8063   -6.0189    0.0000 C   0  0  0  0  0  0  0  0  0  0  0  0
    2.5207   -6.4314    0.0000 C   0  0  0  0  0  0  0  0  0  0  0  0
    2.5207   -7.2564    0.0000 C   0  0  0  0  0  0  0  0  0  0  0  0
    3.2352   -7.6689    0.0000 C   0  0  0  0  0  0  0  0  0  0  0  0
    3.2352   -8.4939    0.0000 C   0  0  0  0  0  0  0  0  0  0  0  0
    0.3773   -1.8939    0.0000 C   0  0  0  0  0  0  0  0  0  0  0  0
    1.0918   -1.4814    0.0000 O   0  0  0  0  0  0  0  0  0  0  0  0
    1.8063   -1.8939    0.0000 C   0  0  0  0  0  0  0  0  0  0  0  0
    2.5207   -1.4814    0.0000 C   0  0  0  0  0  0  0  0  0  0  0  0
    3.2352   -1.8939    0.0000 C   0  0  0  0  0  0  0  0  0  0  0  0
    3.9497   -1.4814    0.0000 C   0  0  0  0  0  0  0  0  0  0  0  0
    4.6641   -1.8939    0.0000 C   0  0  0  0  0  0  0  0  0  0  0  0
    5.3786   -1.4814    0.0000 C   0  0  0  0  0  0  0  0  0  0  0  0
    6.0931   -1.8939    0.0000 C   0  0  0  0  0  0  0  0  0  0  0  0
  1  2  1  0
  2  3  1  0
  3  4  1  0
  4  5  1  0
  5  6  1  0
  6  7  1  0
  7  8  1  0
  8  9  1  0
  9 10  1  0
 10 11  1  0
 11 12  1  0
 12 13  1  0
 13 14  1  0
 14 15  1  0
 15 16  1  0
 16 17  1  0
 17 18  1  0
 18 19  1  0
 10 20  1  0
 20 21  1  0
 21 22  1  0
 22 23  1  0
 23 24  1  0
 24 25  1  0
 25 26  1  0
 26 27  1  0
 27 28  1  0
 10 29  1  0
 29 30  1  0
 30 31  1  0
 31 32  1  0
 32 33  1  0
 33 34  1  0
 34 35  1  0
 35 36  1  0
 36 37  1  0
M  END
>  <name>  (849) 
Fatty acids, C5-9, tetraesters with pentaerythritol

>  <Outcome>  (849) 
0

>  <SMILES>  (849) 
CCCCCCCOCC(COCCCCCCC)(COCCCCCCC)COCCCCCCC

$$$$

     RDKit          2D

  9  8  0  0  0  0  0  0  0  0999 V2000
    1.6728    1.8802    0.0000 C   0  0  0  0  0  0  0  0  0  0  0  0
    2.3872    1.4677    0.0000 C   0  0  0  0  0  0  0  0  0  0  0  0
    3.1017    1.8802    0.0000 O   0  0  0  0  0  0  0  0  0  0  0  0
    3.8162    1.4677    0.0000 C   0  0  0  0  0  0  0  0  0  0  0  0
    3.8162    0.6427    0.0000 O   0  0  0  0  0  0  0  0  0  0  0  0
    4.5306    1.8802    0.0000 C   0  0  0  0  0  0  0  0  0  0  0  0
    4.5306    2.7052    0.0000 C   0  0  0  0  0  0  0  0  0  0  0  0
    5.2451    1.4677    0.0000 C   0  0  0  0  0  0  0  0  0  0  0  0
    5.9596    1.8802    0.0000 C   0  0  0  0  0  0  0  0  0  0  0  0
  1  2  1  0
  2  3  1  0
  3  4  1  0
  4  5  2  0
  4  6  1  0
  6  7  1  0
  6  8  1  0
  8  9  1  0
M  END
>  <name>  (850) 
ethyl 2-methylbutanoate

>  <Outcome>  (850) 
0

>  <SMILES>  (850) 
CCOC(=O)C(C)CC

$$$$

     RDKit          2D

  4  3  0  0  0  0  0  0  0  0999 V2000
    1.2375    0.7145    0.0000 O   0  0  0  0  0  0  0  0  0  0  0  0
    0.8250   -0.0000    0.0000 C   0  0  0  0  0  0  0  0  0  0  0  0
    1.2375   -0.7145    0.0000 F   0  0  0  0  0  0  0  0  0  0  0  0
    0.0000   -0.0000    0.0000 F   0  0  0  0  0  0  0  0  0  0  0  0
  1  2  2  0
  2  3  1  0
  2  4  1  0
M  END
>  <name>  (851) 
carbonyl difluoride

>  <Outcome>  (851) 
1

>  <SMILES>  (851) 
O=C(F)F

$$$$

     RDKit          2D

 27 30  0  0  0  0  0  0  0  0999 V2000
    4.1577   -1.6826    0.0000 O   0  0  0  0  0  0  0  0  0  0  0  0
    4.1577   -2.5076    0.0000 C   0  0  0  0  0  0  0  0  0  0  0  0
    4.8252   -2.9926    0.0000 C   0  0  0  0  0  0  0  0  0  0  0  0
    4.5702   -3.7772    0.0000 C   0  0  0  0  0  0  0  0  0  0  0  0
    3.7452   -3.7772    0.0000 C   0  0  0  0  0  0  0  0  0  0  0  0
    3.2603   -4.4446    0.0000 O   0  0  0  0  0  0  0  0  0  0  0  0
    3.4903   -2.9926    0.0000 N   0  0  0  0  0  0  0  0  0  0  0  0
    2.7057   -2.7376    0.0000 C   0  0  0  0  0  0  0  0  0  0  0  0
    2.0926   -3.2896    0.0000 C   0  0  0  0  0  0  0  0  0  0  0  0
    1.3080   -3.0347    0.0000 C   0  0  0  0  0  0  0  0  0  0  0  0
    1.1364   -2.2277    0.0000 C   0  0  0  0  0  0  0  0  0  0  0  0
    0.3518   -1.9728    0.0000 C   0  0  0  0  0  0  0  0  0  0  0  0
    0.1803   -1.1658    0.0000 C   0  0  0  0  0  0  0  0  0  0  0  0
   -0.6043   -0.9109    0.0000 C   0  0  0  0  0  0  0  0  0  0  0  0
   -0.7759   -0.1039    0.0000 C   0  0  0  0  0  0  0  0  0  0  0  0
   -0.1628    0.4481    0.0000 C   0  0  0  0  0  0  0  0  0  0  0  0
   -0.3343    1.2551    0.0000 N   0  0  0  0  0  0  0  0  0  0  0  0
   -1.0880    1.5907    0.0000 C   0  0  0  0  0  0  0  0  0  0  0  0
   -1.8024    1.1782    0.0000 O   0  0  0  0  0  0  0  0  0  0  0  0
   -1.0017    2.4111    0.0000 C   0  0  0  0  0  0  0  0  0  0  0  0
   -0.1948    2.5827    0.0000 C   0  0  0  0  0  0  0  0  0  0  0  0
    0.2177    1.8682    0.0000 C   0  0  0  0  0  0  0  0  0  0  0  0
    1.0382    1.7820    0.0000 O   0  0  0  0  0  0  0  0  0  0  0  0
    0.6219    0.1932    0.0000 C   0  0  0  0  0  0  0  0  0  0  0  0
    0.7934   -0.6138    0.0000 C   0  0  0  0  0  0  0  0  0  0  0  0
    1.7495   -1.6757    0.0000 C   0  0  0  0  0  0  0  0  0  0  0  0
    2.5342   -1.9306    0.0000 C   0  0  0  0  0  0  0  0  0  0  0  0
  1  2  2  0
  2  3  1  0
  3  4  2  0
  4  5  1  0
  5  6  2  0
  5  7  1  0
  2  7  1  0
  7  8  1  0
  8  9  2  0
  9 10  1  0
 10 11  2  0
 11 12  1  0
 12 13  1  0
 13 14  2  0
 14 15  1  0
 15 16  2  0
 16 17  1  0
 17 18  1  0
 18 19  2  0
 18 20  1  0
 20 21  2  0
 21 22  1  0
 17 22  1  0
 22 23  2  0
 16 24  1  0
 24 25  2  0
 13 25  1  0
 11 26  1  0
 26 27  2  0
  8 27  1  0
M  END
>  <name>  (852) 
1-(4-{[4-(2,5-dioxo-2,5-dihydro-1H-pyrrol-1-yl)phenyl]methyl}phenyl)-2,5-dihydro-1H-pyrrole-2,5-dione

>  <Outcome>  (852) 
1

>  <SMILES>  (852) 
O=C1C=CC(=O)N1c1ccc(Cc2ccc(N3C(=O)C=CC3=O)cc2)cc1

$$$$

     RDKit          2D

  5  5  0  0  0  0  0  0  0  0999 V2000
    1.2992    0.4450    0.0000 C   0  0  0  0  0  0  0  0  0  0  0  0
    1.0443   -0.3396    0.0000 C   0  0  0  0  0  0  0  0  0  0  0  0
    0.2193   -0.3396    0.0000 C   0  0  0  0  0  0  0  0  0  0  0  0
   -0.0356    0.4450    0.0000 C   0  0  0  0  0  0  0  0  0  0  0  0
    0.6318    0.9299    0.0000 C   0  0  0  0  0  0  0  0  0  0  0  0
  1  2  2  0
  2  3  1  0
  3  4  1  0
  4  5  1  0
  1  5  1  0
M  END
>  <name>  (853) 
cyclopentene

>  <Outcome>  (853) 
0

>  <SMILES>  (853) 
C1=CCCC1

$$$$

     RDKit          2D

  4  3  0  0  0  0  0  0  0  0999 V2000
    0.0000    0.0000    0.0000 C   0  0  0  0  0  0  0  0  0  0  0  0
    1.2990    0.7500    0.0000 S   0  0  0  0  0  0  0  0  0  0  0  0
   -1.2990    0.7500    0.0000 Cl  0  0  0  0  0  0  0  0  0  0  0  0
   -0.0000   -1.5000    0.0000 Cl  0  0  0  0  0  0  0  0  0  0  0  0
  1  2  2  0
  1  3  1  0
  1  4  1  0
M  END
>  <name>  (854) 
thiocarbonyl dichloride

>  <Outcome>  (854) 
2

>  <SMILES>  (854) 
S=C(Cl)Cl

$$$$

     RDKit          2D

  4  3  0  0  0  0  0  0  0  0999 V2000
    1.2375    0.7145    0.0000 N   0  0  0  0  0  0  0  0  0  0  0  0
    0.8250   -0.0000    0.0000 C   0  0  0  0  0  0  0  0  0  0  0  0
    1.2375   -0.7145    0.0000 N   0  0  0  0  0  0  0  0  0  0  0  0
   -0.0000   -0.0000    0.0000 N   0  0  0  0  0  0  0  0  0  0  0  0
  1  2  2  0
  2  3  1  0
  2  4  1  0
M  END
>  <name>  (855) 
guanidine hydrochloride

>  <Outcome>  (855) 
1

>  <SMILES>  (855) 
N=C(N)N

$$$$

     RDKit          2D

  7  6  0  0  0  0  0  0  0  0999 V2000
    0.0000    0.0000    0.0000 C   0  0  0  0  0  0  0  0  0  0  0  0
    1.2990    0.7500    0.0000 C   0  0  0  0  0  0  0  0  0  0  0  0
    2.5981   -0.0000    0.0000 C   0  0  0  0  0  0  0  0  0  0  0  0
    1.2990    2.2500    0.0000 O   0  0  0  0  0  0  0  0  0  0  0  0
    2.5981    3.0000    0.0000 C   0  0  0  0  0  0  0  0  0  0  0  0
    3.8971    2.2500    0.0000 O   0  0  0  0  0  0  0  0  0  0  0  0
    2.5981    4.5000    0.0000 C   0  0  0  0  0  0  0  0  0  0  0  0
  1  2  1  0
  2  3  1  0
  2  4  1  0
  4  5  1  0
  5  6  2  0
  5  7  1  0
M  END
>  <name>  (856) 
propan-2-yl acetate

>  <Outcome>  (856) 
2

>  <SMILES>  (856) 
CC(=O)OC(C)C

$$$$

     RDKit          2D

 13 10  0  0  0  0  0  0  0  0999 V2000
    0.0000    0.0000    0.0000 C   0  0  0  0  0  0  0  0  0  0  0  0
    1.2990    0.7500    0.0000 C   0  0  0  0  0  0  0  0  0  0  0  0
    2.5981   -0.0000    0.0000 C   0  0  0  0  0  0  0  0  0  0  0  0
    2.5981   -1.5000    0.0000 O   0  0  0  0  0  0  0  0  0  0  0  0
    3.8971    0.7500    0.0000 O   0  0  0  0  0  0  0  0  0  0  0  0
    1.2990    2.2500    0.0000 O   0  0  0  0  0  0  0  0  0  0  0  0
    0.0000    4.7500    0.0000 C   0  0  0  0  0  0  0  0  0  0  0  0
    1.2990    5.5000    0.0000 C   0  0  0  0  0  0  0  0  0  0  0  0
    2.5981    4.7500    0.0000 C   0  0  0  0  0  0  0  0  0  0  0  0
    2.5981    3.2500    0.0000 O   0  0  0  0  0  0  0  0  0  0  0  0
    3.8971    5.5000    0.0000 O   0  0  0  0  0  0  0  0  0  0  0  0
    1.2990    7.0000    0.0000 O   0  0  0  0  0  0  0  0  0  0  0  0
    4.8971    0.0000    0.0000 Ni  0  0  0  0  0 15  0  0  0  0  0  0
  1  2  1  0
  2  3  1  0
  3  4  2  0
  3  5  1  0
  2  6  1  0
  7  8  1  0
  8  9  1  0
  9 10  2  0
  9 11  1  0
  8 12  1  0
M  END
>  <name>  (857) 
2-hydroxypropanoic acid;nickel

>  <Outcome>  (857) 
2

>  <SMILES>  (857) 
CC(O)C(=O)O.CC(O)C(=O)O.[Ni]

$$$$

     RDKit          2D

 28 27  0  0  0  0  0  0  0  0999 V2000
   -0.4841    4.7187    0.0000 C   0  0  0  0  0  0  0  0  0  0  0  0
    0.2304    4.3062    0.0000 C   0  0  0  0  0  0  0  0  0  0  0  0
    0.9448    4.7187    0.0000 C   0  0  0  0  0  0  0  0  0  0  0  0
    1.6593    4.3062    0.0000 C   0  0  0  0  0  0  0  0  0  0  0  0
    2.3738    4.7187    0.0000 C   0  0  0  0  0  0  0  0  0  0  0  0
    3.0882    4.3062    0.0000 C   0  0  0  0  0  0  0  0  0  0  0  0
    3.8027    4.7187    0.0000 C   0  0  0  0  0  0  0  0  0  0  0  0
    4.5172    4.3062    0.0000 C   0  0  0  0  0  0  0  0  0  0  0  0
    5.2317    4.7187    0.0000 C   0  0  0  0  0  0  0  0  0  0  0  0
    5.9461    4.3062    0.0000 C   0  0  0  0  0  0  0  0  0  0  0  0
    6.6606    4.7187    0.0000 C   0  0  0  0  0  0  0  0  0  0  0  0
    7.3751    4.3062    0.0000 C   0  0  0  0  0  0  0  0  0  0  0  0
    8.0895    4.7187    0.0000 C   0  0  0  0  0  0  0  0  0  0  0  0
    8.8040    4.3062    0.0000 C   0  0  0  0  0  0  0  0  0  0  0  0
    9.5185    4.7187    0.0000 C   0  0  0  0  0  0  0  0  0  0  0  0
   10.2329    4.3062    0.0000 C   0  0  0  0  0  0  0  0  0  0  0  0
   10.9474    4.7187    0.0000 C   0  0  0  0  0  0  0  0  0  0  0  0
   11.6619    4.3062    0.0000 C   0  0  0  0  0  0  0  0  0  0  0  0
   11.6619    3.4812    0.0000 O   0  0  0  0  0  0  0  0  0  0  0  0
   12.3764    4.7187    0.0000 O   0  0  0  0  0  0  0  0  0  0  0  0
   13.0908    4.3062    0.0000 C   0  0  0  0  0  0  0  0  0  0  0  0
   13.8053    4.7187    0.0000 C   0  0  0  0  0  0  0  0  0  0  0  0
   13.8053    5.5437    0.0000 C   0  0  0  0  0  0  0  0  0  0  0  0
   14.5198    5.9562    0.0000 C   0  0  0  0  0  0  0  0  0  0  0  0
   14.5198    4.3062    0.0000 C   0  0  0  0  0  0  0  0  0  0  0  0
   15.2342    4.7187    0.0000 C   0  0  0  0  0  0  0  0  0  0  0  0
   15.9487    4.3062    0.0000 C   0  0  0  0  0  0  0  0  0  0  0  0
   16.6632    4.7187    0.0000 C   0  0  0  0  0  0  0  0  0  0  0  0
  1  2  1  0
  2  3  1  0
  3  4  1  0
  4  5  1  0
  5  6  1  0
  6  7  1  0
  7  8  1  0
  9  8  1  0
  9 10  2  3
 10 11  1  0
 11 12  1  0
 12 13  1  0
 13 14  1  0
 14 15  1  0
 15 16  1  0
 16 17  1  0
 17 18  1  0
 18 19  2  0
 18 20  1  0
 20 21  1  0
 21 22  1  0
 22 23  1  0
 23 24  1  0
 22 25  1  0
 25 26  1  0
 26 27  1  0
 27 28  1  0
M  END
>  <name>  (858) 
2-ethylhexyl (9Z)-octadec-9-enoate

>  <Outcome>  (858) 
0

>  <SMILES>  (858) 
CCCCCCCCC=CCCCCCCCC(=O)OCC(CC)CCCC

$$$$

     RDKit          2D

 27 22  0  0  0  0  0  0  0  0999 V2000
    4.2098   -1.2990    0.0000 B   0  0  0  0  0  0  0  0  0  0  0  0
    4.9598   -2.5981    0.0000 O   0  0  0  0  0  0  0  0  0  0  0  0
    3.4598   -0.0000    0.0000 O   0  0  0  0  0  0  0  0  0  0  0  0
    1.9598    0.0000    0.0000 B   0  0  0  0  0  0  0  0  0  0  0  0
    1.3858   -1.3858    0.0000 O   0  0  0  0  0  0  0  0  0  0  0  0
   -0.0000   -1.9598    0.0000 B   0  0  0  0  0  0  0  0  0  0  0  0
   -0.5740   -3.3457    0.0000 O   0  0  0  0  0  0  0  0  0  0  0  0
   -1.9598   -3.9197    0.0000 B   0  0  0  0  0  0  0  0  0  0  0  0
   -3.3457   -3.3457    0.0000 O   0  0  0  0  0  0  0  0  0  0  0  0
   -3.9197   -1.9598    0.0000 B   0  0  0  0  0  0  0  0  0  0  0  0
   -3.3457   -0.5740    0.0000 O   0  0  0  0  0  0  0  0  0  0  0  0
   -1.9598    0.0000    0.0000 B   0  0  0  0  0  0  0  0  0  0  0  0
   -1.3858   -1.3858    0.0000 O   0  0  0  0  0  0  0  0  0  0  0  0
   -1.3858    1.3858    0.0000 O   0  0  0  0  0  0  0  0  0  0  0  0
    0.0000    1.9598    0.0000 B   0  0  0  0  0  0  0  0  0  0  0  0
    1.3858    1.3858    0.0000 O   0  0  0  0  0  0  0  0  0  0  0  0
    0.0000    3.4598    0.0000 O   0  0  0  0  0  0  0  0  0  0  0  0
    1.2990    4.2098    0.0000 B   0  0  0  0  0  0  0  0  0  0  0  0
    2.5981    4.9598    0.0000 O   0  0  0  0  0  0  0  0  0  0  0  0
   -5.4197   -1.9598    0.0000 O   0  0  0  0  0  1  0  0  0  0  0  0
   -1.9598   -5.4197    0.0000 O   0  0  0  0  0  1  0  0  0  0  0  0
    5.9598    0.0000    0.0000 O   0  0  0  0  0  0  0  0  0  0  0  0
    0.0000    5.9598    0.0000 O   0  0  0  0  0  0  0  0  0  0  0  0
    6.9598    0.0000    0.0000 O   0  0  0  0  0  0  0  0  0  0  0  0
    0.0000    6.9598    0.0000 O   0  0  0  0  0  0  0  0  0  0  0  0
    7.9598    0.0000    0.0000 Na  0  0  0  0  0 15  0  0  0  0  0  0
    0.0000    7.9598    0.0000 Na  0  0  0  0  0 15  0  0  0  0  0  0
  1  2  2  0
  1  3  1  0
  3  4  1  0
  4  5  1  0
  5  6  1  0
  6  7  1  0
  7  8  1  0
  8  9  1  0
  9 10  1  0
 10 11  1  0
 11 12  1  0
 12 13  1  0
 12 14  1  0
 14 15  1  0
 15 16  1  0
 15 17  1  0
 17 18  1  0
 18 19  2  0
 10 20  1  0
  8 21  1  0
 16  4  1  0
 13  6  1  0
M  CHG  4  20  -1  21  -1  26   1  27   1
M  END
>  <name>  (859) 
disodium;(9,11-dioxido-5-oxoboranyloxy-2,4,6,8,10,12,13-heptaoxa-1,3,5,7,9,11-hexaborabicyclo[5.5.1]tridecan-3-yl)oxy-oxoborane;tetrahydrate

>  <Outcome>  (859) 
2

>  <SMILES>  (859) 
O.O.O.O.O=BOB1OB(OB=O)OB2OB([O-])OB([O-])OB(O1)O2.[Na+].[Na+]

$$$$

     RDKit          2D

 20 19  0  0  0  0  0  0  0  0999 V2000
    8.4711    5.7158    0.0000 C   0  0  0  0  0  0  0  0  0  0  0  0
    9.1855    6.1283    0.0000 C   0  0  0  0  0  0  0  0  0  0  0  0
    9.9000    5.7158    0.0000 C   0  0  0  0  0  0  0  0  0  0  0  0
   10.6145    6.1283    0.0000 C   0  0  0  0  0  0  0  0  0  0  0  0
   11.3289    5.7158    0.0000 C   0  0  0  0  0  0  0  0  0  0  0  0
   12.0434    6.1283    0.0000 C   0  0  0  0  0  0  0  0  0  0  0  0
   12.7579    5.7158    0.0000 C   0  0  0  0  0  0  0  0  0  0  0  0
   13.4724    6.1283    0.0000 C   0  0  0  0  0  0  0  0  0  0  0  0
   14.1868    5.7158    0.0000 C   0  0  0  0  0  0  0  0  0  0  0  0
   14.9013    6.1283    0.0000 C   0  0  0  0  0  0  0  0  0  0  0  0
   15.6158    5.7158    0.0000 C   0  0  0  0  0  0  0  0  0  0  0  0
   16.3302    6.1283    0.0000 C   0  0  0  0  0  0  0  0  0  0  0  0
   17.0447    5.7158    0.0000 C   0  0  0  0  0  0  0  0  0  0  0  0
   17.7592    6.1283    0.0000 C   0  0  0  0  0  0  0  0  0  0  0  0
   18.4737    5.7158    0.0000 C   0  0  0  0  0  0  0  0  0  0  0  0
   19.1881    6.1283    0.0000 C   0  0  0  0  0  0  0  0  0  0  0  0
   19.9026    5.7158    0.0000 C   0  0  0  0  0  0  0  0  0  0  0  0
   20.6171    6.1283    0.0000 C   0  0  0  0  0  0  0  0  0  0  0  0
   21.3315    5.7158    0.0000 C   0  0  0  0  0  0  0  0  0  0  0  0
   22.0460    6.1283    0.0000 C   0  0  0  0  0  0  0  0  0  0  0  0
  1  2  1  0
  2  3  1  0
  3  4  1  0
  4  5  1  0
  5  6  1  0
  6  7  1  0
  7  8  1  0
  8  9  1  0
  9 10  1  0
 10 11  1  0
 11 12  1  0
 12 13  1  0
 13 14  1  0
 14 15  1  0
 15 16  1  0
 16 17  1  0
 17 18  1  0
 18 19  1  0
 19 20  1  0
M  END
>  <name>  (860) 
icosane

>  <Outcome>  (860) 
0

>  <SMILES>  (860) 
CCCCCCCCCCCCCCCCCCCC

$$$$

     RDKit          2D

 22 21  0  0  0  0  0  0  0  0999 V2000
    4.5375   -5.0013    0.0000 C   0  0  0  0  0  0  0  0  0  0  0  0
    3.7125   -5.0013    0.0000 C   0  0  0  0  0  0  0  0  0  0  0  0
    3.3000   -4.2868    0.0000 C   0  0  0  0  0  0  0  0  0  0  0  0
    4.0145   -3.8743    0.0000 F   0  0  0  0  0  0  0  0  0  0  0  0
    2.5855   -4.6993    0.0000 F   0  0  0  0  0  0  0  0  0  0  0  0
    2.8875   -3.5724    0.0000 C   0  0  0  0  0  0  0  0  0  0  0  0
    3.6020   -3.1599    0.0000 F   0  0  0  0  0  0  0  0  0  0  0  0
    2.1730   -3.9849    0.0000 F   0  0  0  0  0  0  0  0  0  0  0  0
    2.4750   -2.8579    0.0000 C   0  0  0  0  0  0  0  0  0  0  0  0
    3.1895   -2.4454    0.0000 F   0  0  0  0  0  0  0  0  0  0  0  0
    1.7605   -3.2704    0.0000 F   0  0  0  0  0  0  0  0  0  0  0  0
    2.0625   -2.1434    0.0000 C   0  0  0  0  0  0  0  0  0  0  0  0
    2.7770   -1.7309    0.0000 F   0  0  0  0  0  0  0  0  0  0  0  0
    1.3480   -2.5559    0.0000 F   0  0  0  0  0  0  0  0  0  0  0  0
    1.6500   -1.4289    0.0000 C   0  0  0  0  0  0  0  0  0  0  0  0
    2.3645   -1.0164    0.0000 F   0  0  0  0  0  0  0  0  0  0  0  0
    0.9355   -1.8414    0.0000 F   0  0  0  0  0  0  0  0  0  0  0  0
    1.2375   -0.7145    0.0000 C   0  0  0  0  0  0  0  0  0  0  0  0
    1.9520   -0.3020    0.0000 F   0  0  0  0  0  0  0  0  0  0  0  0
    0.5230   -1.1270    0.0000 F   0  0  0  0  0  0  0  0  0  0  0  0
    0.8250   -0.0000    0.0000 C   0  0  0  0  0  0  0  0  0  0  0  0
    0.0000   -0.0000    0.0000 C   0  0  0  0  0  0  0  0  0  0  0  0
  1  2  2  0
  2  3  1  0
  3  4  1  0
  3  5  1  0
  3  6  1  0
  6  7  1  0
  6  8  1  0
  6  9  1  0
  9 10  1  0
  9 11  1  0
  9 12  1  0
 12 13  1  0
 12 14  1  0
 12 15  1  0
 15 16  1  0
 15 17  1  0
 15 18  1  0
 18 19  1  0
 18 20  1  0
 18 21  1  0
 21 22  2  0
M  END
>  <name>  (861) 
3,3,4,4,5,5,6,6,7,7,8,8-dodecafluorodeca-1,9-diene

>  <Outcome>  (861) 
0

>  <SMILES>  (861) 
C=CC(F)(F)C(F)(F)C(F)(F)C(F)(F)C(F)(F)C(F)(F)C=C

$$$$

     RDKit          2D

 21 20  0  0  0  0  0  0  0  0999 V2000
    8.4711    5.7158    0.0000 C   0  0  0  0  0  0  0  0  0  0  0  0
    9.1855    6.1283    0.0000 C   0  0  0  0  0  0  0  0  0  0  0  0
    9.9000    5.7158    0.0000 C   0  0  0  0  0  0  0  0  0  0  0  0
   10.6145    6.1283    0.0000 C   0  0  0  0  0  0  0  0  0  0  0  0
   11.3289    5.7158    0.0000 C   0  0  0  0  0  0  0  0  0  0  0  0
   12.0434    6.1283    0.0000 C   0  0  0  0  0  0  0  0  0  0  0  0
   12.7579    5.7158    0.0000 C   0  0  0  0  0  0  0  0  0  0  0  0
   13.4724    6.1283    0.0000 C   0  0  0  0  0  0  0  0  0  0  0  0
   14.1868    5.7158    0.0000 C   0  0  0  0  0  0  0  0  0  0  0  0
   14.9013    6.1283    0.0000 C   0  0  0  0  0  0  0  0  0  0  0  0
   15.6158    5.7158    0.0000 C   0  0  0  0  0  0  0  0  0  0  0  0
   16.3302    6.1283    0.0000 C   0  0  0  0  0  0  0  0  0  0  0  0
   17.0447    5.7158    0.0000 C   0  0  0  0  0  0  0  0  0  0  0  0
   17.7592    6.1283    0.0000 C   0  0  0  0  0  0  0  0  0  0  0  0
   18.4737    5.7158    0.0000 C   0  0  0  0  0  0  0  0  0  0  0  0
   19.1881    6.1283    0.0000 C   0  0  0  0  0  0  0  0  0  0  0  0
   19.9026    5.7158    0.0000 C   0  0  0  0  0  0  0  0  0  0  0  0
   20.6171    6.1283    0.0000 C   0  0  0  0  0  0  0  0  0  0  0  0
   20.6171    6.9533    0.0000 O   0  0  0  0  0  0  0  0  0  0  0  0
   21.3315    5.7158    0.0000 O   0  0  0  0  0  0  0  0  0  0  0  0
   22.0460    6.1283    0.0000 C   0  0  0  0  0  0  0  0  0  0  0  0
  1  2  1  0
  2  3  1  0
  3  4  1  0
  4  5  1  0
  5  6  1  0
  6  7  1  0
  7  8  1  0
  8  9  1  0
  9 10  1  0
 10 11  1  0
 11 12  1  0
 12 13  1  0
 13 14  1  0
 14 15  1  0
 15 16  1  0
 16 17  1  0
 17 18  1  0
 18 19  2  0
 18 20  1  0
 20 21  1  0
M  END
>  <name>  (862) 
methyl octadecanoate

>  <Outcome>  (862) 
0

>  <SMILES>  (862) 
CCCCCCCCCCCCCCCCCC(=O)OC

$$$$

     RDKit          2D

  9  8  0  0  0  0  0  0  0  0999 V2000
    2.9980    2.5571    0.0000 C   0  0  0  0  0  0  0  0  0  0  0  0
    3.7125    2.1446    0.0000 C   0  0  0  0  0  0  0  0  0  0  0  0
    4.4270    2.5571    0.0000 C   0  0  0  0  0  0  0  0  0  0  0  0
    5.1414    2.1446    0.0000 C   0  0  0  0  0  0  0  0  0  0  0  0
    5.8559    2.5571    0.0000 C   0  0  0  0  0  0  0  0  0  0  0  0
    6.5704    2.1446    0.0000 C   0  0  0  0  0  0  0  0  0  0  0  0
    7.2849    2.5571    0.0000 C   0  0  0  0  0  0  0  0  0  0  0  0
    7.9993    2.1446    0.0000 C   0  0  0  0  0  0  0  0  0  0  0  0
    8.7138    2.5571    0.0000 N   0  0  0  0  0  0  0  0  0  0  0  0
  1  2  1  0
  2  3  1  0
  3  4  1  0
  4  5  1  0
  5  6  1  0
  6  7  1  0
  7  8  1  0
  8  9  1  0
M  END
>  <name>  (863) 
octan-1-amine

>  <Outcome>  (863) 
1

>  <SMILES>  (863) 
CCCCCCCCN

$$$$

     RDKit          2D

 13 13  0  0  0  0  0  0  0  0999 V2000
    1.3627    0.4559    0.0000 C   0  0  0  0  0  0  0  0  0  0  0  0
    0.6482    0.0434    0.0000 C   0  0  0  0  0  0  0  0  0  0  0  0
   -0.0663    0.4559    0.0000 C   0  0  0  0  0  0  0  0  0  0  0  0
   -0.7807    0.0434    0.0000 C   0  0  0  0  0  0  0  0  0  0  0  0
   -0.7807   -0.7816    0.0000 C   0  0  0  0  0  0  0  0  0  0  0  0
   -0.0663   -1.1941    0.0000 C   0  0  0  0  0  0  0  0  0  0  0  0
    0.6482   -0.7816    0.0000 C   0  0  0  0  0  0  0  0  0  0  0  0
    1.3627   -1.1941    0.0000 N   0  0  0  0  0  0  0  0  0  0  0  0
    2.0772   -0.7816    0.0000 C   0  0  0  0  0  0  0  0  0  0  0  0
    2.7916   -0.3691    0.0000 O   0  0  0  0  0  0  0  0  0  0  0  0
   -0.0663    1.2809    0.0000 N   0  0  0  0  0  0  0  0  0  0  0  0
   -0.7807    1.6934    0.0000 C   0  0  0  0  0  0  0  0  0  0  0  0
   -1.4952    2.1059    0.0000 O   0  0  0  0  0  0  0  0  0  0  0  0
  1  2  1  0
  3  2  2  0
  4  3  1  0
  5  4  2  0
  6  5  1  0
  7  6  2  0
  7  8  1  0
  8  9  2  0
  9 10  2  0
  3 11  1  0
 11 12  2  0
 12 13  2  0
  2  7  1  0
M  END
>  <name>  (864) 
Reaction product Toluene 2,4- diisocyanate /Toluene-2,6-diisocynate in a ratio 80% to 20 %  in excess with Toluen-2,4-diamin /Toluidine-2,6-diamin in a ratio 80% to 20%  forming Biuret structures via  non-isolated polyurea intermediates

>  <Outcome>  (864) 
1

>  <SMILES>  (864) 
Cc1c(N=C=O)cccc1N=C=O

$$$$

     RDKit          2D

 21 21  0  0  0  0  0  0  0  0999 V2000
   -0.9748    2.1986    0.0000 C   0  0  0  0  0  0  0  0  0  0  0  0
   -0.2603    1.7861    0.0000 C   0  0  0  0  0  0  0  0  0  0  0  0
    0.4542    2.1986    0.0000 C   0  0  0  0  0  0  0  0  0  0  0  0
    1.1686    1.7861    0.0000 C   0  0  0  0  0  0  0  0  0  0  0  0
    1.8831    2.1986    0.0000 C   0  0  0  0  0  0  0  0  0  0  0  0
    2.5976    1.7861    0.0000 C   0  0  0  0  0  0  0  0  0  0  0  0
    3.3120    2.1986    0.0000 C   0  0  0  0  0  0  0  0  0  0  0  0
    4.0265    1.7861    0.0000 C   0  0  0  0  0  0  0  0  0  0  0  0
    4.7410    2.1986    0.0000 C   0  0  0  0  0  0  0  0  0  0  0  0
    5.4555    1.7861    0.0000 C   0  0  0  0  0  0  0  0  0  0  0  0
    6.1699    2.1986    0.0000 C   0  0  0  0  0  0  0  0  0  0  0  0
    6.8844    1.7861    0.0000 C   0  0  0  0  0  0  0  0  0  0  0  0
    7.5989    2.1986    0.0000 O   0  0  0  0  0  0  0  0  0  0  0  0
    8.3133    1.7861    0.0000 C   0  0  0  0  0  0  0  0  0  0  0  0
    8.3133    0.9611    0.0000 O   0  0  0  0  0  0  0  0  0  0  0  0
    9.0278    2.1986    0.0000 C   0  0  0  0  0  0  0  0  0  0  0  0
    9.7423    1.7861    0.0000 C   0  0  0  0  0  0  0  0  0  0  0  0
   10.4568    2.1986    0.0000 C   0  0  0  0  0  0  0  0  0  0  0  0
   10.4568    3.0236    0.0000 C   0  0  0  0  0  0  0  0  0  0  0  0
    9.7423    3.4361    0.0000 C   0  0  0  0  0  0  0  0  0  0  0  0
    9.0278    3.0236    0.0000 C   0  0  0  0  0  0  0  0  0  0  0  0
  1  2  1  0
  2  3  1  0
  3  4  1  0
  4  5  1  0
  5  6  1  0
  6  7  1  0
  7  8  1  0
  8  9  1  0
  9 10  1  0
 10 11  1  0
 11 12  1  0
 12 13  1  0
 13 14  1  0
 14 15  2  0
 14 16  1  0
 17 16  2  0
 18 17  1  0
 19 18  2  0
 20 19  1  0
 21 20  2  0
 16 21  1  0
M  END
>  <name>  (865) 
Benzoic acid, C12-15-alkyl esters

>  <Outcome>  (865) 
0

>  <SMILES>  (865) 
CCCCCCCCCCCCOC(=O)c1ccccc1

$$$$

     RDKit          2D

 11 12  0  0  0  0  0  0  0  0999 V2000
    1.7286    0.0000    0.0000 C   0  0  0  0  0  0  0  0  0  0  0  0
    1.0777    1.3515    0.0000 C   0  0  0  0  0  0  0  0  0  0  0  0
   -0.3846    1.6852    0.0000 C   0  0  0  0  0  0  0  0  0  0  0  0
   -1.5574    0.7500    0.0000 C   0  0  0  0  0  0  0  0  0  0  0  0
   -2.8564    1.5000    0.0000 N   0  0  0  0  0  0  0  0  0  0  0  0
   -4.1555    0.7500    0.0000 C   0  0  0  0  0  0  0  0  0  0  0  0
   -4.1555   -0.7500    0.0000 C   0  0  0  0  0  0  0  0  0  0  0  0
   -2.8564   -1.5000    0.0000 C   0  0  0  0  0  0  0  0  0  0  0  0
   -1.5574   -0.7500    0.0000 N   0  0  0  0  0  0  0  0  0  0  0  0
   -0.3846   -1.6852    0.0000 C   0  0  0  0  0  0  0  0  0  0  0  0
    1.0777   -1.3515    0.0000 C   0  0  0  0  0  0  0  0  0  0  0  0
  1  2  1  0
  2  3  1  0
  3  4  1  0
  4  5  2  0
  5  6  1  0
  6  7  1  0
  7  8  1  0
  8  9  1  0
  9 10  1  0
 10 11  1  0
 11  1  1  0
  9  4  1  0
M  END
>  <name>  (866) 
2,3,4,6,7,8,9,10-octahydropyrimido[1,2-a]azepine

>  <Outcome>  (866) 
2

>  <SMILES>  (866) 
C1CCC2=NCCCN2CC1

$$$$

     RDKit          2D

  5  4  0  0  0  0  0  0  0  0999 V2000
    2.4742    0.0634    0.0000 Cl  0  0  0  0  0  0  0  0  0  0  0  0
    1.6492    0.0634    0.0000 C   0  0  0  0  0  0  0  0  0  0  0  0
    1.2367   -0.6511    0.0000 C   0  0  0  0  0  0  0  0  0  0  0  0
    1.2367    0.7778    0.0000 C   0  0  0  0  0  0  0  0  0  0  0  0
    0.4117    0.7778    0.0000 C   0  0  0  0  0  0  0  0  0  0  0  0
  1  2  1  0
  2  3  2  0
  2  4  1  0
  4  5  2  0
M  END
>  <name>  (867) 
Chloroprene

>  <Outcome>  (867) 
0

>  <SMILES>  (867) 
C=CC(=C)Cl

$$$$

     RDKit          2D

 22 22  0  0  0  0  0  0  0  0999 V2000
    3.7500   -6.4952    0.0000 C   0  0  0  0  0  0  0  0  0  0  0  0
    3.0000   -5.1962    0.0000 C   0  0  0  0  0  0  0  0  0  0  0  0
    1.5000   -5.1962    0.0000 C   0  0  0  0  0  0  0  0  0  0  0  0
    3.7500   -3.8971    0.0000 C   0  0  0  0  0  0  0  0  0  0  0  0
    3.0000   -2.5981    0.0000 C   0  0  0  0  0  0  0  0  0  0  0  0
    3.7500   -1.2990    0.0000 C   0  0  0  0  0  0  0  0  0  0  0  0
    5.2500   -1.2990    0.0000 C   0  0  0  0  0  0  0  0  0  0  0  0
    3.0000    0.0000    0.0000 N   0  0  0  0  0  0  0  0  0  0  0  0
    1.5000    0.0000    0.0000 C   0  0  0  0  0  0  0  0  0  0  0  0
    0.7500   -1.2990    0.0000 C   0  0  0  0  0  0  0  0  0  0  0  0
   -0.7500   -1.2990    0.0000 C   0  0  0  0  0  0  0  0  0  0  0  0
   -1.5000    0.0000    0.0000 C   0  0  0  0  0  0  0  0  0  0  0  0
   -0.7500    1.2990    0.0000 C   0  0  0  0  0  0  0  0  0  0  0  0
    0.7500    1.2990    0.0000 C   0  0  0  0  0  0  0  0  0  0  0  0
   -3.0000    0.0000    0.0000 N   0  0  0  0  0  0  0  0  0  0  0  0
   -3.7500    1.2990    0.0000 C   0  0  0  0  0  0  0  0  0  0  0  0
   -5.2500    1.2990    0.0000 C   0  0  0  0  0  0  0  0  0  0  0  0
   -3.0000    2.5981    0.0000 C   0  0  0  0  0  0  0  0  0  0  0  0
   -3.7500    3.8971    0.0000 C   0  0  0  0  0  0  0  0  0  0  0  0
   -3.0000    5.1962    0.0000 C   0  0  0  0  0  0  0  0  0  0  0  0
   -3.7500    6.4952    0.0000 C   0  0  0  0  0  0  0  0  0  0  0  0
   -1.5000    5.1962    0.0000 C   0  0  0  0  0  0  0  0  0  0  0  0
  1  2  1  0
  2  3  1  0
  2  4  1  0
  4  5  1  0
  5  6  1  0
  6  7  1  0
  6  8  1  0
  8  9  1  0
  9 10  2  0
 10 11  1  0
 11 12  2  0
 12 13  1  0
 13 14  2  0
 12 15  1  0
 15 16  1  0
 16 17  1  0
 16 18  1  0
 18 19  1  0
 19 20  1  0
 20 21  1  0
 20 22  1  0
 14  9  1  0
M  END
>  <name>  (868) 
1-N,4-N-bis(5-methylhexan-2-yl)benzene-1,4-diamine

>  <Outcome>  (868) 
2

>  <SMILES>  (868) 
CC(C)CCC(C)Nc1ccc(NC(C)CCC(C)C)cc1

$$$$

     RDKit          2D

 16 17  0  0  0  0  0  0  0  0999 V2000
    2.8566   -4.1258    0.0000 O   0  0  0  0  0  0  0  0  0  0  0  0
    2.1421   -3.7133    0.0000 C   0  0  0  0  0  0  0  0  0  0  0  0
    1.4277   -4.1258    0.0000 O   0  0  0  0  0  0  0  0  0  0  0  0
    2.1421   -2.8883    0.0000 C   0  0  0  0  0  0  0  0  0  0  0  0
    1.4277   -2.4758    0.0000 O   0  0  0  0  0  0  0  0  0  0  0  0
    1.4277   -1.6508    0.0000 C   0  0  0  0  0  0  0  0  0  0  0  0
    0.7132   -1.2383    0.0000 C   0  0  0  0  0  0  0  0  0  0  0  0
    0.7132   -0.4133    0.0000 C   0  0  0  0  0  0  0  0  0  0  0  0
    1.4277   -0.0008    0.0000 C   0  0  0  0  0  0  0  0  0  0  0  0
    1.4277    0.8242    0.0000 Cl  0  0  0  0  0  0  0  0  0  0  0  0
    2.1421   -0.4133    0.0000 C   0  0  0  0  0  0  0  0  0  0  0  0
    2.8566   -0.0008    0.0000 C   0  0  0  0  0  0  0  0  0  0  0  0
    3.5711   -0.4133    0.0000 C   0  0  0  0  0  0  0  0  0  0  0  0
    3.5711   -1.2383    0.0000 C   0  0  0  0  0  0  0  0  0  0  0  0
    2.8566   -1.6508    0.0000 N   0  0  0  0  0  0  0  0  0  0  0  0
    2.1421   -1.2383    0.0000 C   0  0  0  0  0  0  0  0  0  0  0  0
  1  2  2  0
  2  3  1  0
  2  4  1  0
  4  5  1  0
  5  6  1  0
  6  7  2  0
  7  8  1  0
  8  9  2  0
  9 10  1  0
  9 11  1  0
 11 12  2  0
 12 13  1  0
 13 14  2  0
 14 15  1  0
 15 16  2  0
  6 16  1  0
 11 16  1  0
M  END
>  <name>  (869) 
unnamed [88349-88-6]

>  <Outcome>  (869) 
0

>  <SMILES>  (869) 
O=C(O)COc1ccc(Cl)c2cccnc12

$$$$

     RDKit          2D

 25 24  0  0  0  0  0  0  0  0999 V2000
    2.6210    9.7575    0.0000 C   0  0  0  0  0  0  0  0  0  0  0  0
    2.6210    8.9325    0.0000 C   0  0  0  0  0  0  0  0  0  0  0  0
    3.3355    8.5200    0.0000 C   0  0  0  0  0  0  0  0  0  0  0  0
    3.3355    7.6950    0.0000 C   0  0  0  0  0  0  0  0  0  0  0  0
    4.0499    7.2825    0.0000 C   0  0  0  0  0  0  0  0  0  0  0  0
    4.0499    6.4575    0.0000 C   0  0  0  0  0  0  0  0  0  0  0  0
    4.7644    6.0450    0.0000 C   0  0  0  0  0  0  0  0  0  0  0  0
    4.7644    5.2200    0.0000 C   0  0  0  0  0  0  0  0  0  0  0  0
    5.4789    4.8075    0.0000 C   0  0  0  0  0  0  0  0  0  0  0  0
    5.4789    3.9825    0.0000 C   0  0  0  0  0  0  0  0  0  0  0  0
    6.1933    3.5700    0.0000 C   0  0  0  0  0  0  0  0  0  0  0  0
    6.9078    3.9825    0.0000 C   0  0  0  0  0  0  0  0  0  0  0  0
    7.6223    3.5700    0.0000 C   0  0  0  0  0  0  0  0  0  0  0  0
    8.3367    3.9825    0.0000 C   0  0  0  0  0  0  0  0  0  0  0  0
    9.0512    3.5700    0.0000 C   0  0  0  0  0  0  0  0  0  0  0  0
    9.7657    3.9825    0.0000 C   0  0  0  0  0  0  0  0  0  0  0  0
   10.4802    3.5700    0.0000 C   0  0  0  0  0  0  0  0  0  0  0  0
   11.1946    3.9825    0.0000 C   0  0  0  0  0  0  0  0  0  0  0  0
   11.1946    4.8075    0.0000 O   0  0  0  0  0  0  0  0  0  0  0  0
   11.9091    3.5700    0.0000 N   0  0  0  0  0  0  0  0  0  0  0  0
   11.9091    2.7450    0.0000 C   0  0  0  0  0  0  0  0  0  0  0  0
   12.6236    3.9825    0.0000 C   0  0  0  0  0  0  0  0  0  0  0  0
   13.3380    3.5700    0.0000 C   0  0  0  0  0  0  0  0  0  0  0  0
   14.0525    3.9825    0.0000 O   0  0  0  0  0  0  0  0  0  0  0  0
   13.3380    2.7450    0.0000 O   0  0  0  0  0  0  0  0  0  0  0  0
  1  2  1  0
  2  3  1  0
  3  4  1  0
  4  5  1  0
  5  6  1  0
  6  7  1  0
  7  8  1  0
  9  8  1  0
  9 10  2  3
 10 11  1  0
 11 12  1  0
 12 13  1  0
 13 14  1  0
 14 15  1  0
 15 16  1  0
 16 17  1  0
 17 18  1  0
 18 19  2  0
 18 20  1  0
 20 21  1  0
 20 22  1  0
 22 23  1  0
 23 24  2  0
 23 25  1  0
M  END
>  <name>  (870) 
potassium (Z)-N-methyl-N-(1-oxo-9-octadecenyl)aminoacetate

>  <Outcome>  (870) 
1

>  <SMILES>  (870) 
CCCCCCCCC=CCCCCCCCC(=O)N(C)CC(=O)O

$$$$

     RDKit          2D

 13 10  0  0  0  0  0  0  0  0999 V2000
    1.0607    0.0000    0.0000 C   0  0  0  0  0  0  0  0  0  0  0  0
   -0.0000   -1.0607    0.0000 C   0  0  0  0  0  0  0  0  0  0  0  0
   -1.0607    0.0000    0.0000 C   0  0  0  0  0  0  0  0  0  0  0  0
    0.0000    1.0607    0.0000 C   0  0  0  0  0  0  0  0  0  0  0  0
   -2.1213   -1.0607    0.0000 C   0  0  0  0  0  0  0  0  0  0  0  0
   -1.7331   -2.5095    0.0000 O   0  0  0  0  0  0  0  0  0  0  0  0
   -3.5702   -0.6724    0.0000 O   0  0  0  0  0  0  0  0  0  0  0  0
   -2.1213    1.0607    0.0000 C   0  0  0  0  0  0  0  0  0  0  0  0
   -3.5702    0.6724    0.0000 O   0  0  0  0  0  0  0  0  0  0  0  0
   -1.7331    2.5095    0.0000 O   0  0  0  0  0  0  0  0  0  0  0  0
    2.0607    0.0000    0.0000 N   0  0  0  0  0  2  0  0  0  0  0  0
    0.0000    3.5095    0.0000 N   0  0  0  0  0  2  0  0  0  0  0  0
    3.0607    0.0000    0.0000 Pt  0  0  0  0  0 15  0  0  0  0  0  0
  1  2  1  0
  2  3  1  0
  3  4  1  0
  3  5  1  0
  5  6  2  0
  5  7  1  0
  3  8  1  0
  8  9  2  0
  8 10  1  0
  4  1  1  0
M  CHG  3  11  -1  12  -1  13   2
M  END
>  <name>  (871) 
azanide;cyclobutane-1,1-dicarboxylic acid;platinum(2+)

>  <Outcome>  (871) 
2

>  <SMILES>  (871) 
O=C(O)C1(C(=O)O)CCC1.[NH2-].[NH2-].[Pt+2]

$$$$

     RDKit          2D

  9  8  0  0  0  0  0  0  0  0999 V2000
    0.0000    0.0000    0.0000 C   0  0  0  0  0  0  0  0  0  0  0  0
    1.2990    0.7500    0.0000 C   0  0  0  0  0  0  0  0  0  0  0  0
    2.5981   -0.0000    0.0000 C   0  0  0  0  0  0  0  0  0  0  0  0
    3.8971    0.7500    0.0000 C   0  0  0  0  0  0  0  0  0  0  0  0
    5.1962   -0.0000    0.0000 O   0  0  0  0  0  0  0  0  0  0  0  0
    6.4952    0.7500    0.0000 C   0  0  0  0  0  0  0  0  0  0  0  0
    6.4952    2.2500    0.0000 O   0  0  0  0  0  0  0  0  0  0  0  0
    7.7942   -0.0000    0.0000 C   0  0  0  0  0  0  0  0  0  0  0  0
    9.0933    0.7500    0.0000 C   0  0  0  0  0  0  0  0  0  0  0  0
  1  2  1  0
  2  3  1  0
  3  4  1  0
  4  5  1  0
  5  6  1  0
  6  7  2  0
  6  8  1  0
  8  9  1  0
M  END
>  <name>  (872) 
butyl propanoate

>  <Outcome>  (872) 
2

>  <SMILES>  (872) 
CCCCOC(=O)CC

$$$$

     RDKit          2D

 12 11  0  0  0  0  0  0  0  0999 V2000
    0.0000    0.0000    0.0000 C   0  0  0  0  0  0  0  0  0  0  0  0
    1.2990    0.7500    0.0000 C   0  0  0  0  0  0  0  0  0  0  0  0
    2.5981   -0.0000    0.0000 C   0  0  0  0  0  0  0  0  0  0  0  0
    3.8971    0.7500    0.0000 C   0  0  0  0  0  0  0  0  0  0  0  0
    5.1962   -0.0000    0.0000 C   0  0  0  0  0  0  0  0  0  0  0  0
    6.4952    0.7500    0.0000 C   0  0  0  0  0  0  0  0  0  0  0  0
    7.7942   -0.0000    0.0000 C   0  0  0  0  0  0  0  0  0  0  0  0
    9.0933    0.7500    0.0000 C   0  0  0  0  0  0  0  0  0  0  0  0
   10.3923   -0.0000    0.0000 P   0  0  0  0  0  0  0  0  0  0  0  0
   11.6913   -0.7500    0.0000 O   0  0  0  0  0  0  0  0  0  0  0  0
   11.1423    1.2990    0.0000 O   0  0  0  0  0  0  0  0  0  0  0  0
    9.6423   -1.2990    0.0000 O   0  0  0  0  0  0  0  0  0  0  0  0
  1  2  1  0
  2  3  1  0
  3  4  1  0
  4  5  1  0
  5  6  1  0
  6  7  1  0
  7  8  1  0
  8  9  1  0
  9 10  2  0
  9 11  1  0
  9 12  1  0
M  END
>  <name>  (873) 
octylphosphonic acid

>  <Outcome>  (873) 
2

>  <SMILES>  (873) 
CCCCCCCCP(=O)(O)O

$$$$

     RDKit          2D

  9  8  0  0  0  0  0  0  0  0999 V2000
    2.8157    0.5779    0.0000 O   0  0  0  0  0  0  0  0  0  0  0  0
    2.1012    0.1654    0.0000 C   0  0  0  0  0  0  0  0  0  0  0  0
    1.3867    0.5779    0.0000 C   0  0  0  0  0  0  0  0  0  0  0  0
    0.6722    0.9904    0.0000 C   0  0  0  0  0  0  0  0  0  0  0  0
   -0.0422    0.5779    0.0000 O   0  0  0  0  0  0  0  0  0  0  0  0
    1.7992    1.2924    0.0000 C   0  0  0  0  0  0  0  0  0  0  0  0
    1.3867    2.0069    0.0000 O   0  0  0  0  0  0  0  0  0  0  0  0
    0.9742   -0.1366    0.0000 C   0  0  0  0  0  0  0  0  0  0  0  0
    0.1492   -0.1366    0.0000 O   0  0  0  0  0  0  0  0  0  0  0  0
  1  2  1  0
  2  3  1  0
  3  4  1  0
  4  5  1  0
  3  6  1  0
  6  7  1  0
  3  8  1  0
  8  9  1  0
M  END
>  <name>  (874) 
2,2-bis(hydroxymethyl)propane-1,3-diol

>  <Outcome>  (874) 
0

>  <SMILES>  (874) 
OCC(CO)(CO)CO

$$$$

     RDKit          2D

 25 24  0  0  0  0  0  0  0  0999 V2000
    1.2990    2.2500    0.0000 C   0  0  0  0  0  0  0  0  0  0  0  0
    1.2990    0.7500    0.0000 C   0  0  0  0  0  0  0  0  0  0  0  0
    2.5981   -0.0000    0.0000 C   0  0  0  0  0  0  0  0  0  0  0  0
    2.5981   -1.5000    0.0000 C   0  0  0  0  0  0  0  0  0  0  0  0
    3.8971   -2.2500    0.0000 C   0  0  0  0  0  0  0  0  0  0  0  0
    3.8971   -3.7500    0.0000 C   0  0  0  0  0  0  0  0  0  0  0  0
    5.1962   -4.5000    0.0000 C   0  0  0  0  0  0  0  0  0  0  0  0
    5.1962   -1.5000    0.0000 C   0  0  0  0  0  0  0  0  0  0  0  0
    6.4952   -2.2500    0.0000 N   0  0  0  0  0  0  0  0  0  0  0  0
    6.4952   -3.7500    0.0000 C   0  0  0  0  0  0  0  0  0  0  0  0
    7.7942   -4.5000    0.0000 C   0  0  0  0  0  0  0  0  0  0  0  0
    7.7942   -6.0000    0.0000 C   0  0  0  0  0  0  0  0  0  0  0  0
    9.0933   -6.7500    0.0000 C   0  0  0  0  0  0  0  0  0  0  0  0
    9.0933   -3.7500    0.0000 C   0  0  0  0  0  0  0  0  0  0  0  0
   10.3923   -4.5000    0.0000 C   0  0  0  0  0  0  0  0  0  0  0  0
   11.6913   -3.7500    0.0000 C   0  0  0  0  0  0  0  0  0  0  0  0
   12.9904   -4.5000    0.0000 C   0  0  0  0  0  0  0  0  0  0  0  0
    7.7942   -1.5000    0.0000 C   0  0  0  0  0  0  0  0  0  0  0  0
    7.7942   -0.0000    0.0000 C   0  0  0  0  0  0  0  0  0  0  0  0
    6.4952    0.7500    0.0000 C   0  0  0  0  0  0  0  0  0  0  0  0
    6.4952    2.2500    0.0000 C   0  0  0  0  0  0  0  0  0  0  0  0
    9.0933    0.7500    0.0000 C   0  0  0  0  0  0  0  0  0  0  0  0
    9.0933    2.2500    0.0000 C   0  0  0  0  0  0  0  0  0  0  0  0
   10.3923    3.0000    0.0000 C   0  0  0  0  0  0  0  0  0  0  0  0
   10.3923    4.5000    0.0000 C   0  0  0  0  0  0  0  0  0  0  0  0
  1  2  1  0
  2  3  1  0
  3  4  1  0
  4  5  1  0
  5  6  1  0
  6  7  1  0
  5  8  1  0
  8  9  1  0
  9 10  1  0
 10 11  1  0
 11 12  1  0
 12 13  1  0
 11 14  1  0
 14 15  1  0
 15 16  1  0
 16 17  1  0
  9 18  1  0
 18 19  1  0
 19 20  1  0
 20 21  1  0
 19 22  1  0
 22 23  1  0
 23 24  1  0
 24 25  1  0
M  END
>  <name>  (875) 
2-ethyl-N,N-bis(2-ethylhexyl)hexan-1-amine

>  <Outcome>  (875) 
2

>  <SMILES>  (875) 
CCCCC(CC)CN(CC(CC)CCCC)CC(CC)CCCC

$$$$

     RDKit          2D

 18 18  0  0  0  0  0  0  0  0999 V2000
    0.6885    2.1255    0.0000 Br  0  0  0  0  0  0  0  0  0  0  0  0
    0.6885    1.3005    0.0000 C   0  0  0  0  0  0  0  0  0  0  0  0
   -0.0260    0.8880    0.0000 C   0  0  0  0  0  0  0  0  0  0  0  0
   -0.7405    1.3005    0.0000 C   0  0  0  0  0  0  0  0  0  0  0  0
   -0.7405    2.1255    0.0000 Br  0  0  0  0  0  0  0  0  0  0  0  0
   -1.4549    0.8880    0.0000 C   0  0  0  0  0  0  0  0  0  0  0  0
   -1.4549    0.0630    0.0000 C   0  0  0  0  0  0  0  0  0  0  0  0
   -2.1694   -0.3495    0.0000 Br  0  0  0  0  0  0  0  0  0  0  0  0
   -0.7405   -0.3495    0.0000 C   0  0  0  0  0  0  0  0  0  0  0  0
   -0.7405   -1.1745    0.0000 C   0  0  0  0  0  0  0  0  0  0  0  0
   -1.4549   -1.5870    0.0000 Br  0  0  0  0  0  0  0  0  0  0  0  0
   -0.0260   -1.5870    0.0000 C   0  0  0  0  0  0  0  0  0  0  0  0
    0.6885   -1.1745    0.0000 C   0  0  0  0  0  0  0  0  0  0  0  0
    1.4030   -1.5870    0.0000 Br  0  0  0  0  0  0  0  0  0  0  0  0
    0.6885   -0.3495    0.0000 C   0  0  0  0  0  0  0  0  0  0  0  0
    1.4030    0.0630    0.0000 C   0  0  0  0  0  0  0  0  0  0  0  0
    2.1174   -0.3495    0.0000 Br  0  0  0  0  0  0  0  0  0  0  0  0
    1.4030    0.8880    0.0000 C   0  0  0  0  0  0  0  0  0  0  0  0
  1  2  1  0
  3  2  1  0
  4  3  1  0
  4  5  1  0
  6  4  1  0
  7  6  1  0
  7  8  1  0
  9  7  1  0
 10  9  1  0
 10 11  1  0
 12 10  1  0
 13 12  1  0
 13 14  1  0
 15 13  1  0
 16 15  1  0
 16 17  1  0
 18 16  1  0
  2 18  1  0
M  END
>  <name>  (876) 
Hexabromocyclododecane

>  <Outcome>  (876) 
0

>  <SMILES>  (876) 
BrC1CC(Br)CC(Br)CC(Br)CC(Br)CC(Br)C1

$$$$

     RDKit          2D

  9  9  0  0  0  0  0  0  0  0999 V2000
    1.5000    0.0000    0.0000 C   0  0  0  0  0  0  0  0  0  0  0  0
    0.7500   -1.2990    0.0000 C   0  0  0  0  0  0  0  0  0  0  0  0
   -0.7500   -1.2990    0.0000 C   0  0  0  0  0  0  0  0  0  0  0  0
   -1.5000    0.0000    0.0000 C   0  0  0  0  0  0  0  0  0  0  0  0
   -0.7500    1.2990    0.0000 C   0  0  0  0  0  0  0  0  0  0  0  0
    0.7500    1.2990    0.0000 C   0  0  0  0  0  0  0  0  0  0  0  0
   -3.0000    0.0000    0.0000 C   0  0  0  0  0  0  0  0  0  0  0  0
   -3.7500    1.2990    0.0000 Cl  0  0  0  0  0  0  0  0  0  0  0  0
   -3.7500   -1.2990    0.0000 Cl  0  0  0  0  0  0  0  0  0  0  0  0
  1  2  2  0
  2  3  1  0
  3  4  2  0
  4  5  1  0
  5  6  2  0
  4  7  1  0
  7  8  1  0
  7  9  1  0
  6  1  1  0
M  END
>  <name>  (877) 
dichloromethylbenzene

>  <Outcome>  (877) 
2

>  <SMILES>  (877) 
ClC(Cl)c1ccccc1

$$$$

     RDKit          2D

 20 22  0  0  0  0  0  0  0  0999 V2000
    0.7145   -0.4125    0.0000 O   0  0  0  0  0  0  0  0  0  0  0  0
    0.7145   -1.2375    0.0000 C   0  0  0  0  0  0  0  0  0  0  0  0
    1.3819   -1.7224    0.0000 C   0  0  0  0  0  0  0  0  0  0  0  0
    1.1270   -2.5070    0.0000 C   0  0  0  0  0  0  0  0  0  0  0  0
    0.3020   -2.5070    0.0000 C   0  0  0  0  0  0  0  0  0  0  0  0
   -0.1829   -3.1745    0.0000 O   0  0  0  0  0  0  0  0  0  0  0  0
    0.0470   -1.7224    0.0000 N   0  0  0  0  0  0  0  0  0  0  0  0
   -0.7376   -1.4675    0.0000 C   0  0  0  0  0  0  0  0  0  0  0  0
   -1.3507   -2.0195    0.0000 C   0  0  0  0  0  0  0  0  0  0  0  0
   -2.1353   -1.7646    0.0000 C   0  0  0  0  0  0  0  0  0  0  0  0
   -2.3068   -0.9576    0.0000 C   0  0  0  0  0  0  0  0  0  0  0  0
   -1.6937   -0.4056    0.0000 C   0  0  0  0  0  0  0  0  0  0  0  0
   -1.8653    0.4014    0.0000 N   0  0  0  0  0  0  0  0  0  0  0  0
   -2.6189    0.7370    0.0000 C   0  0  0  0  0  0  0  0  0  0  0  0
   -3.3334    0.3245    0.0000 O   0  0  0  0  0  0  0  0  0  0  0  0
   -2.5327    1.5574    0.0000 C   0  0  0  0  0  0  0  0  0  0  0  0
   -1.7257    1.7290    0.0000 C   0  0  0  0  0  0  0  0  0  0  0  0
   -1.3132    1.0145    0.0000 C   0  0  0  0  0  0  0  0  0  0  0  0
   -0.4927    0.9283    0.0000 O   0  0  0  0  0  0  0  0  0  0  0  0
   -0.9091   -0.6605    0.0000 C   0  0  0  0  0  0  0  0  0  0  0  0
  1  2  2  0
  2  3  1  0
  3  4  2  0
  4  5  1  0
  5  6  2  0
  5  7  1  0
  2  7  1  0
  7  8  1  0
  8  9  2  0
  9 10  1  0
 10 11  2  0
 11 12  1  0
 12 13  1  0
 13 14  1  0
 14 15  2  0
 14 16  1  0
 16 17  2  0
 17 18  1  0
 13 18  1  0
 18 19  2  0
 12 20  2  0
  8 20  1  0
M  END
>  <name>  (878) 
1-[3-(2,5-dioxo-2,5-dihydro-1H-pyrrol-1-yl)phenyl]-2,5-dihydro-1H-pyrrole-2,5-dione

>  <Outcome>  (878) 
1

>  <SMILES>  (878) 
O=C1C=CC(=O)N1c1cccc(N2C(=O)C=CC2=O)c1

$$$$

     RDKit          2D

  4  3  0  0  0  0  0  0  0  0999 V2000
    2.0625   -0.7145    0.0000 C   0  0  0  0  0  0  0  0  0  0  0  0
    1.2375   -0.7145    0.0000 S   0  0  0  0  0  0  0  0  0  0  0  0
    0.8250   -0.0000    0.0000 S   0  0  0  0  0  0  0  0  0  0  0  0
    0.0000   -0.0000    0.0000 C   0  0  0  0  0  0  0  0  0  0  0  0
  1  2  1  0
  2  3  1  0
  3  4  1  0
M  END
>  <name>  (879) 
(methyldisulfanyl)methane

>  <Outcome>  (879) 
1

>  <SMILES>  (879) 
CSSC

$$$$

     RDKit          2D

  3  2  0  0  0  0  0  0  0  0999 V2000
    0.0000    0.0000    0.0000 Ni  0  0  0  0  0  2  0  0  0  0  0  0
    0.0000    1.5000    0.0000 I   0  0  0  0  0  0  0  0  0  0  0  0
   -0.0000   -1.5000    0.0000 I   0  0  0  0  0  0  0  0  0  0  0  0
  1  2  1  0
  1  3  1  0
M  END
>  <name>  (880) 
diiodonickel

>  <Outcome>  (880) 
2

>  <SMILES>  (880) 
I[Ni]I

$$$$

     RDKit          2D

 10  9  0  0  0  0  0  0  0  0999 V2000
    0.0000    0.0000    0.0000 C   0  0  0  0  0  0  0  0  0  0  0  0
    1.2990    0.7500    0.0000 C   0  0  0  0  0  0  0  0  0  0  0  0
    2.5981   -0.0000    0.0000 C   0  0  0  0  0  0  0  0  0  0  0  0
    1.2990    2.2500    0.0000 C   0  0  0  0  0  0  0  0  0  0  0  0
    2.5981    3.0000    0.0000 C   0  0  0  0  0  0  0  0  0  0  0  0
    2.5981    4.5000    0.0000 C   0  0  0  0  0  0  0  0  0  0  0  0
    3.8971    2.2500    0.0000 O   0  0  0  0  0  0  0  0  0  0  0  0
    5.1962    3.0000    0.0000 C   0  0  0  0  0  0  0  0  0  0  0  0
    5.1962    4.5000    0.0000 O   0  0  0  0  0  0  0  0  0  0  0  0
    6.4952    2.2500    0.0000 C   0  0  0  0  0  0  0  0  0  0  0  0
  1  2  1  0
  2  3  1  0
  2  4  1  0
  4  5  1  0
  5  6  1  0
  5  7  1  0
  7  8  1  0
  8  9  2  0
  8 10  1  0
M  END
>  <name>  (881) 
4-methylpentan-2-yl acetate

>  <Outcome>  (881) 
2

>  <SMILES>  (881) 
CC(=O)OC(C)CC(C)C

$$$$

     RDKit          2D

  8  8  0  0  0  0  0  0  0  0999 V2000
    3.5260    1.2990    0.0000 C   0  0  0  0  0  0  0  0  0  0  0  0
    2.7760    0.0000    0.0000 C   0  0  0  0  0  0  0  0  0  0  0  0
    1.2760    0.0000    0.0000 N   0  0  0  0  0  0  0  0  0  0  0  0
    0.3943    1.2135    0.0000 C   0  0  0  0  0  0  0  0  0  0  0  0
   -1.0323    0.7500    0.0000 C   0  0  0  0  0  0  0  0  0  0  0  0
   -1.0323   -0.7500    0.0000 C   0  0  0  0  0  0  0  0  0  0  0  0
    0.3943   -1.2135    0.0000 C   0  0  0  0  0  0  0  0  0  0  0  0
    0.8578   -2.6401    0.0000 O   0  0  0  0  0  0  0  0  0  0  0  0
  1  2  1  0
  2  3  1  0
  3  4  1  0
  4  5  1  0
  5  6  1  0
  6  7  1  0
  7  8  2  0
  7  3  1  0
M  END
>  <name>  (882) 
1-ethylpyrrolidin-2-one

>  <Outcome>  (882) 
2

>  <SMILES>  (882) 
CCN1CCCC1=O

$$$$

     RDKit          2D

 14 13  0  0  0  0  0  0  0  0999 V2000
    2.1912    3.2780    0.0000 C   0  0  0  0  0  0  0  0  0  0  0  0
    1.4767    2.8655    0.0000 C   0  0  0  0  0  0  0  0  0  0  0  0
    1.4767    2.0405    0.0000 O   0  0  0  0  0  0  0  0  0  0  0  0
    0.7622    1.6280    0.0000 Si  0  0  0  0  0  4  0  0  0  0  0  0
    0.0478    1.2155    0.0000 C   0  0  0  0  0  0  0  0  0  0  0  0
   -0.6667    1.6280    0.0000 C   0  0  0  0  0  0  0  0  0  0  0  0
   -1.3812    1.2155    0.0000 C   0  0  0  0  0  0  0  0  0  0  0  0
   -0.6667    2.4530    0.0000 C   0  0  0  0  0  0  0  0  0  0  0  0
    0.3497    2.3424    0.0000 O   0  0  0  0  0  0  0  0  0  0  0  0
    0.7622    3.0569    0.0000 C   0  0  0  0  0  0  0  0  0  0  0  0
    0.3497    3.7714    0.0000 C   0  0  0  0  0  0  0  0  0  0  0  0
    1.1747    0.9135    0.0000 O   0  0  0  0  0  0  0  0  0  0  0  0
    0.7622    0.1990    0.0000 C   0  0  0  0  0  0  0  0  0  0  0  0
   -0.0628    0.1990    0.0000 C   0  0  0  0  0  0  0  0  0  0  0  0
  1  2  1  0
  2  3  1  0
  3  4  1  0
  4  5  1  0
  5  6  1  0
  6  7  1  0
  6  8  1  0
  4  9  1  0
  9 10  1  0
 10 11  1  0
  4 12  1  0
 12 13  1  0
 13 14  1  0
M  END
>  <name>  (883) 
triethoxy(2-methylpropyl)silane

>  <Outcome>  (883) 
0

>  <SMILES>  (883) 
CCO[Si](CC(C)C)(OCC)OCC

$$$$

     RDKit          2D

  7  7  0  0  0  0  0  0  0  0999 V2000
    0.7145    2.0625    0.0000 Br  0  0  0  0  0  0  0  0  0  0  0  0
    0.7145    1.2375    0.0000 C   0  0  0  0  0  0  0  0  0  0  0  0
    1.4289    0.8250    0.0000 C   0  0  0  0  0  0  0  0  0  0  0  0
    1.4289    0.0000    0.0000 C   0  0  0  0  0  0  0  0  0  0  0  0
    0.7145   -0.4125    0.0000 C   0  0  0  0  0  0  0  0  0  0  0  0
   -0.0000    0.0000    0.0000 C   0  0  0  0  0  0  0  0  0  0  0  0
   -0.0000    0.8250    0.0000 C   0  0  0  0  0  0  0  0  0  0  0  0
  1  2  1  0
  2  3  2  0
  3  4  1  0
  4  5  2  0
  5  6  1  0
  6  7  2  0
  2  7  1  0
M  END
>  <name>  (884) 
bromobenzene

>  <Outcome>  (884) 
0

>  <SMILES>  (884) 
Brc1ccccc1

$$$$

     RDKit          2D

  8  8  0  0  0  0  0  0  0  0999 V2000
    0.7145    2.0625    0.0000 C   0  0  0  0  0  0  0  0  0  0  0  0
    0.7145    1.2375    0.0000 C   0  0  0  0  0  0  0  0  0  0  0  0
    1.4290    0.8250    0.0000 C   0  0  0  0  0  0  0  0  0  0  0  0
    1.4290   -0.0000    0.0000 C   0  0  0  0  0  0  0  0  0  0  0  0
    0.7145   -0.4125    0.0000 C   0  0  0  0  0  0  0  0  0  0  0  0
    0.7145   -1.2375    0.0000 C   0  0  0  0  0  0  0  0  0  0  0  0
    0.0000    0.0000    0.0000 C   0  0  0  0  0  0  0  0  0  0  0  0
    0.0000    0.8250    0.0000 C   0  0  0  0  0  0  0  0  0  0  0  0
  1  2  1  0
  2  3  2  0
  3  4  1  0
  4  5  2  0
  5  6  1  0
  5  7  1  0
  7  8  2  0
  2  8  1  0
M  END
>  <name>  (885) 
1,4-xylene

>  <Outcome>  (885) 
0

>  <SMILES>  (885) 
Cc1ccc(C)cc1

$$$$

     RDKit          2D

 11 10  0  0  0  0  0  0  0  0999 V2000
    1.7605    1.8414    0.0000 C   0  0  0  0  0  0  0  0  0  0  0  0
    2.4750    1.4289    0.0000 C   0  0  0  0  0  0  0  0  0  0  0  0
    2.4750    0.6039    0.0000 C   0  0  0  0  0  0  0  0  0  0  0  0
    3.1895    1.8414    0.0000 C   0  0  0  0  0  0  0  0  0  0  0  0
    3.1895    2.6664    0.0000 O   0  0  0  0  0  0  0  0  0  0  0  0
    3.9039    1.4289    0.0000 O   0  0  0  0  0  0  0  0  0  0  0  0
    4.6184    1.8414    0.0000 C   0  0  0  0  0  0  0  0  0  0  0  0
    4.6184    2.6664    0.0000 O   0  0  0  0  0  0  0  0  0  0  0  0
    5.3329    1.4289    0.0000 C   0  0  0  0  0  0  0  0  0  0  0  0
    6.0474    1.8414    0.0000 C   0  0  0  0  0  0  0  0  0  0  0  0
    5.3329    0.6039    0.0000 C   0  0  0  0  0  0  0  0  0  0  0  0
  1  2  2  0
  2  3  1  0
  2  4  1  0
  4  5  2  0
  4  6  1  0
  6  7  1  0
  7  8  2  0
  7  9  1  0
  9 10  2  0
  9 11  1  0
M  END
>  <name>  (886) 
2-methylprop-2-enoyl 2-methylprop-2-enoate

>  <Outcome>  (886) 
1

>  <SMILES>  (886) 
C=C(C)C(=O)OC(=O)C(=C)C

$$$$

     RDKit          2D

  7  6  0  0  0  0  0  0  0  0999 V2000
    0.0000    0.0000    0.0000 C   0  0  0  0  0  0  0  0  0  0  0  0
    1.2990    0.7500    0.0000 C   0  0  0  0  0  0  0  0  0  0  0  0
    1.2990    2.2500    0.0000 C   0  0  0  0  0  0  0  0  0  0  0  0
    2.5981    3.0000    0.0000 C   0  0  0  0  0  0  0  0  0  0  0  0
    3.8971    2.2500    0.0000 O   0  0  0  0  0  0  0  0  0  0  0  0
    2.5981    4.5000    0.0000 C   0  0  0  0  0  0  0  0  0  0  0  0
    2.5981   -0.0000    0.0000 C   0  0  0  0  0  0  0  0  0  0  0  0
  1  2  1  0
  2  3  2  0
  3  4  1  0
  4  5  2  0
  4  6  1  0
  2  7  1  0
M  END
>  <name>  (887) 
4-methylpent-3-en-2-one

>  <Outcome>  (887) 
2

>  <SMILES>  (887) 
CC(=O)C=C(C)C

$$$$

     RDKit          2D

  6  5  0  0  0  0  0  0  0  0999 V2000
    0.8250    1.4289    0.0000 O   0  0  0  0  0  0  0  0  0  0  0  0
    1.2375    0.7145    0.0000 C   0  0  0  0  0  0  0  0  0  0  0  0
    2.0625    0.7145    0.0000 O   0  0  0  0  0  0  0  0  0  0  0  0
    0.8250    0.0000    0.0000 C   0  0  0  0  0  0  0  0  0  0  0  0
    1.2375   -0.7145    0.0000 F   0  0  0  0  0  0  0  0  0  0  0  0
    0.0000    0.0000    0.0000 F   0  0  0  0  0  0  0  0  0  0  0  0
  1  2  2  0
  2  3  1  0
  2  4  1  0
  4  5  1  0
  4  6  1  0
M  END
>  <name>  (888) 
difluoroacetic acid

>  <Outcome>  (888) 
1

>  <SMILES>  (888) 
O=C(O)C(F)F

$$$$

     RDKit          2D

 18 19  0  0  0  0  0  0  0  0999 V2000
    1.5000    0.0000    0.0000 C   0  0  0  0  0  0  0  0  0  0  0  0
    0.7500   -1.2990    0.0000 C   0  0  0  0  0  0  0  0  0  0  0  0
   -0.7500   -1.2990    0.0000 C   0  0  0  0  0  0  0  0  0  0  0  0
   -1.5000    0.0000    0.0000 C   0  0  0  0  0  0  0  0  0  0  0  0
   -0.7500    1.2990    0.0000 C   0  0  0  0  0  0  0  0  0  0  0  0
    0.7500    1.2990    0.0000 C   0  0  0  0  0  0  0  0  0  0  0  0
   -3.0000    0.0000    0.0000 C   0  0  0  0  0  0  0  0  0  0  0  0
   -3.7500    1.2990    0.0000 O   0  0  0  0  0  0  0  0  0  0  0  0
   -3.7500   -1.2990    0.0000 O   0  0  0  0  0  0  0  0  0  0  0  0
   -5.2500   -1.2990    0.0000 O   0  0  0  0  0  0  0  0  0  0  0  0
   -6.0000   -2.5981    0.0000 C   0  0  0  0  0  0  0  0  0  0  0  0
   -5.2500   -3.8971    0.0000 O   0  0  0  0  0  0  0  0  0  0  0  0
   -7.5000   -2.5981    0.0000 C   0  0  0  0  0  0  0  0  0  0  0  0
   -8.2500   -1.2990    0.0000 C   0  0  0  0  0  0  0  0  0  0  0  0
   -9.7500   -1.2990    0.0000 C   0  0  0  0  0  0  0  0  0  0  0  0
  -10.5000   -2.5981    0.0000 C   0  0  0  0  0  0  0  0  0  0  0  0
   -9.7500   -3.8971    0.0000 C   0  0  0  0  0  0  0  0  0  0  0  0
   -8.2500   -3.8971    0.0000 C   0  0  0  0  0  0  0  0  0  0  0  0
  1  2  2  0
  2  3  1  0
  3  4  2  0
  4  5  1  0
  5  6  2  0
  4  7  1  0
  7  8  2  0
  7  9  1  0
  9 10  1  0
 10 11  1  0
 11 12  2  0
 11 13  1  0
 13 14  2  0
 14 15  1  0
 15 16  2  0
 16 17  1  0
 17 18  2  0
  6  1  1  0
 18 13  1  0
M  END
>  <name>  (889) 
benzoyl benzenecarboperoxoate

>  <Outcome>  (889) 
2

>  <SMILES>  (889) 
O=C(OOC(=O)c1ccccc1)c1ccccc1

$$$$

     RDKit          2D

  9  9  0  0  0  0  0  0  0  0999 V2000
   -0.5626    2.9849    0.0000 O   0  0  0  0  0  0  0  0  0  0  0  0
    0.1518    2.5724    0.0000 C   0  0  0  0  0  0  0  0  0  0  0  0
    0.8663    2.1599    0.0000 N   0  0  0  0  0  0  0  0  0  0  0  0
    0.8663    1.3349    0.0000 C   0  0  0  0  0  0  0  0  0  0  0  0
    1.5808    0.9224    0.0000 C   0  0  0  0  0  0  0  0  0  0  0  0
    1.5808    0.0974    0.0000 C   0  0  0  0  0  0  0  0  0  0  0  0
    0.8663   -0.3151    0.0000 C   0  0  0  0  0  0  0  0  0  0  0  0
    0.1518    0.0974    0.0000 C   0  0  0  0  0  0  0  0  0  0  0  0
    0.1518    0.9224    0.0000 C   0  0  0  0  0  0  0  0  0  0  0  0
  1  2  2  0
  2  3  2  0
  3  4  1  0
  4  5  1  0
  5  6  1  0
  6  7  1  0
  7  8  1  0
  8  9  1  0
  4  9  1  0
M  END
>  <name>  (890) 
isocyanatocyclohexane

>  <Outcome>  (890) 
1

>  <SMILES>  (890) 
O=C=NC1CCCCC1

$$$$

     RDKit          2D

 10 10  0  0  0  0  0  0  0  0999 V2000
    1.5000    0.0000    0.0000 C   0  0  0  0  0  0  0  0  0  0  0  0
    0.7500   -1.2990    0.0000 C   0  0  0  0  0  0  0  0  0  0  0  0
   -0.7500   -1.2990    0.0000 C   0  0  0  0  0  0  0  0  0  0  0  0
   -1.5000    0.0000    0.0000 C   0  0  0  0  0  0  0  0  0  0  0  0
   -0.7500    1.2990    0.0000 C   0  0  0  0  0  0  0  0  0  0  0  0
    0.7500    1.2990    0.0000 C   0  0  0  0  0  0  0  0  0  0  0  0
    1.5000    2.5981    0.0000 N   0  0  0  0  0  4  0  0  0  0  0  0
    0.7500    3.8971    0.0000 O   0  0  0  0  0  0  0  0  0  0  0  0
    3.0000    2.5981    0.0000 O   0  0  0  0  0  1  0  0  0  0  0  0
   -1.5000   -2.5981    0.0000 Cl  0  0  0  0  0  0  0  0  0  0  0  0
  1  2  2  0
  2  3  1  0
  3  4  2  0
  4  5  1  0
  5  6  2  0
  6  7  1  0
  7  8  2  0
  7  9  1  0
  3 10  1  0
  6  1  1  0
M  CHG  2   7   1   9  -1
M  END
>  <name>  (891) 
1-chloro-4-nitrobenzene

>  <Outcome>  (891) 
2

>  <SMILES>  (891) 
O=[N+]([O-])c1ccc(Cl)cc1

$$$$

     RDKit          2D

  4  3  0  0  0  0  0  0  0  0999 V2000
    0.0000    0.0000    0.0000 C   0  0  0  0  0  0  0  0  0  0  0  0
    1.2990    0.7500    0.0000 N   0  0  0  0  0  0  0  0  0  0  0  0
    2.5981   -0.0000    0.0000 C   0  0  0  0  0  0  0  0  0  0  0  0
    1.2990    2.2500    0.0000 N   0  0  0  0  0  0  0  0  0  0  0  0
  1  2  1  0
  2  3  1  0
  2  4  1  0
M  END
>  <name>  (892) 
1,1-dimethylhydrazine

>  <Outcome>  (892) 
2

>  <SMILES>  (892) 
CN(C)N

$$$$

     RDKit          2D

 12 12  0  0  0  0  0  0  0  0999 V2000
   -0.7362    3.7563    0.0000 C   0  0  0  0  0  0  0  0  0  0  0  0
   -0.0217    3.3438    0.0000 N   0  0  0  0  0  0  0  0  0  0  0  0
   -0.0217    2.5188    0.0000 C   0  0  0  0  0  0  0  0  0  0  0  0
   -0.7362    2.1063    0.0000 C   0  0  0  0  0  0  0  0  0  0  0  0
    0.6928    2.1063    0.0000 C   0  0  0  0  0  0  0  0  0  0  0  0
    1.4072    2.5188    0.0000 O   0  0  0  0  0  0  0  0  0  0  0  0
    0.6928    1.2813    0.0000 C   0  0  0  0  0  0  0  0  0  0  0  0
    1.4072    0.8688    0.0000 C   0  0  0  0  0  0  0  0  0  0  0  0
    1.4072    0.0438    0.0000 C   0  0  0  0  0  0  0  0  0  0  0  0
    0.6928   -0.3687    0.0000 C   0  0  0  0  0  0  0  0  0  0  0  0
   -0.0217    0.0438    0.0000 C   0  0  0  0  0  0  0  0  0  0  0  0
   -0.0217    0.8688    0.0000 C   0  0  0  0  0  0  0  0  0  0  0  0
  1  2  1  0
  2  3  1  0
  3  4  1  0
  3  5  1  0
  5  6  1  0
  5  7  1  0
  7  8  2  0
  8  9  1  0
  9 10  2  0
 10 11  1  0
 11 12  2  0
  7 12  1  0
M  END
>  <name>  (893) 
2-(methylamino)-1-phenylpropan-1-ol

>  <Outcome>  (893) 
0

>  <SMILES>  (893) 
CNC(C)C(O)c1ccccc1

$$$$

     RDKit          2D

 16 16  0  0  0  0  0  0  0  0999 V2000
    1.3512    1.8121    0.0000 C   0  0  0  0  0  0  0  0  0  0  0  0
    0.8209    1.1801    0.0000 C   0  0  0  0  0  0  0  0  0  0  0  0
    0.2906    1.8121    0.0000 C   0  0  0  0  0  0  0  0  0  0  0  0
    1.5354    0.7676    0.0000 C   0  0  0  0  0  0  0  0  0  0  0  0
    1.5354   -0.0574    0.0000 C   0  0  0  0  0  0  0  0  0  0  0  0
    2.2499   -0.4699    0.0000 N   0  0  0  0  0  0  0  0  0  0  0  0
    2.9644   -0.0574    0.0000 C   0  0  0  0  0  0  0  0  0  0  0  0
    3.6788    0.3551    0.0000 O   0  0  0  0  0  0  0  0  0  0  0  0
    0.8209   -0.4699    0.0000 C   0  0  0  0  0  0  0  0  0  0  0  0
    0.1065   -0.0574    0.0000 C   0  0  0  0  0  0  0  0  0  0  0  0
   -0.1757   -0.8326    0.0000 C   0  0  0  0  0  0  0  0  0  0  0  0
   -0.7060    0.0859    0.0000 C   0  0  0  0  0  0  0  0  0  0  0  0
   -0.9882    0.8611    0.0000 N   0  0  0  0  0  0  0  0  0  0  0  0
   -1.8006    1.0044    0.0000 C   0  0  0  0  0  0  0  0  0  0  0  0
   -2.6131    1.1476    0.0000 O   0  0  0  0  0  0  0  0  0  0  0  0
    0.1065    0.7676    0.0000 C   0  0  0  0  0  0  0  0  0  0  0  0
  1  2  1  0
  2  3  1  0
  2  4  1  0
  4  5  1  0
  5  6  1  0
  6  7  2  0
  7  8  2  0
  5  9  1  0
  9 10  1  0
 10 11  1  0
 10 12  1  0
 12 13  1  0
 13 14  2  0
 14 15  2  0
 10 16  1  0
  2 16  1  0
M  END
>  <name>  (894) 
5-isocyanato-1-(isocyanatomethyl)-1,3,3-trimethylcyclohexane

>  <Outcome>  (894) 
1

>  <SMILES>  (894) 
CC1(C)CC(N=C=O)CC(C)(CN=C=O)C1

$$$$

     RDKit          2D

  8  7  0  0  0  0  0  0  0  0999 V2000
   -0.2183    0.7787    0.0000 C   0  0  0  0  0  0  0  0  0  0  0  0
    0.4961    1.1912    0.0000 C   0  0  0  0  0  0  0  0  0  0  0  0
    1.2106    0.7787    0.0000 N   0  0  0  0  0  0  0  0  0  0  0  0
    1.2106   -0.0463    0.0000 C   0  0  0  0  0  0  0  0  0  0  0  0
    0.4961   -0.4588    0.0000 C   0  0  0  0  0  0  0  0  0  0  0  0
    1.9251    1.1912    0.0000 C   0  0  0  0  0  0  0  0  0  0  0  0
    2.6395    0.7787    0.0000 C   0  0  0  0  0  0  0  0  0  0  0  0
    3.3540    1.1912    0.0000 O   0  0  0  0  0  0  0  0  0  0  0  0
  1  2  1  0
  2  3  1  0
  3  4  1  0
  4  5  1  0
  3  6  1  0
  6  7  1  0
  7  8  1  0
M  END
>  <name>  (895) 
2-(diethylamino)ethan-1-ol

>  <Outcome>  (895) 
1

>  <SMILES>  (895) 
CCN(CC)CCO

$$$$

     RDKit          2D

  9  9  0  0  0  0  0  0  0  0999 V2000
    2.3191   -0.0578    0.0000 C   0  0  0  0  0  0  0  0  0  0  0  0
    1.6046    0.3547    0.0000 C   0  0  0  0  0  0  0  0  0  0  0  0
    1.6046    1.1797    0.0000 O   0  0  0  0  0  0  0  0  0  0  0  0
    0.8902   -0.0578    0.0000 C   0  0  0  0  0  0  0  0  0  0  0  0
    0.1757    0.3547    0.0000 C   0  0  0  0  0  0  0  0  0  0  0  0
   -0.5388   -0.0578    0.0000 C   0  0  0  0  0  0  0  0  0  0  0  0
   -0.5388   -0.8828    0.0000 C   0  0  0  0  0  0  0  0  0  0  0  0
    0.1757   -1.2953    0.0000 C   0  0  0  0  0  0  0  0  0  0  0  0
    0.8902   -0.8828    0.0000 C   0  0  0  0  0  0  0  0  0  0  0  0
  1  2  1  0
  2  3  1  0
  2  4  1  0
  5  4  2  0
  6  5  1  0
  7  6  2  0
  8  7  1  0
  9  8  2  0
  4  9  1  0
M  END
>  <name>  (896) 
alpha-Methylbenzyl alcohol

>  <Outcome>  (896) 
0

>  <SMILES>  (896) 
CC(O)c1ccccc1

$$$$

     RDKit          2D

  8  8  0  0  0  0  0  0  0  0999 V2000
    3.0000    0.0000    0.0000 C   0  0  0  0  0  0  0  0  0  0  0  0
    1.5000    0.0000    0.0000 C   0  0  0  0  0  0  0  0  0  0  0  0
    0.7500   -1.2990    0.0000 C   0  0  0  0  0  0  0  0  0  0  0  0
   -0.7500   -1.2990    0.0000 C   0  0  0  0  0  0  0  0  0  0  0  0
   -1.5000    0.0000    0.0000 C   0  0  0  0  0  0  0  0  0  0  0  0
   -0.7500    1.2990    0.0000 C   0  0  0  0  0  0  0  0  0  0  0  0
    0.7500    1.2990    0.0000 C   0  0  0  0  0  0  0  0  0  0  0  0
   -1.5000   -2.5981    0.0000 O   0  0  0  0  0  0  0  0  0  0  0  0
  1  2  1  0
  2  3  2  0
  3  4  1  0
  4  5  2  0
  5  6  1  0
  6  7  2  0
  4  8  1  0
  7  2  1  0
M  END
>  <name>  (897) 
3-methylphenol

>  <Outcome>  (897) 
2

>  <SMILES>  (897) 
Cc1cccc(O)c1

$$$$

     RDKit          2D

 14 15  0  0  0  0  0  0  0  0999 V2000
    1.5000    0.0000    0.0000 C   0  0  0  0  0  0  0  0  0  0  0  0
    0.7500   -1.2990    0.0000 C   0  0  0  0  0  0  0  0  0  0  0  0
   -0.7500   -1.2990    0.0000 C   0  0  0  0  0  0  0  0  0  0  0  0
   -1.5000    0.0000    0.0000 C   0  0  0  0  0  0  0  0  0  0  0  0
   -0.7500    1.2990    0.0000 C   0  0  0  0  0  0  0  0  0  0  0  0
    0.7500    1.2990    0.0000 C   0  0  0  0  0  0  0  0  0  0  0  0
   -3.0000    0.0000    0.0000 N   0  0  0  0  0  0  0  0  0  0  0  0
   -3.7500    1.2990    0.0000 N   0  0  0  0  0  0  0  0  0  0  0  0
   -5.2500    1.2990    0.0000 C   0  0  0  0  0  0  0  0  0  0  0  0
   -6.0000    2.5981    0.0000 C   0  0  0  0  0  0  0  0  0  0  0  0
   -7.5000    2.5981    0.0000 C   0  0  0  0  0  0  0  0  0  0  0  0
   -8.2500    1.2990    0.0000 C   0  0  0  0  0  0  0  0  0  0  0  0
   -7.5000    0.0000    0.0000 C   0  0  0  0  0  0  0  0  0  0  0  0
   -6.0000    0.0000    0.0000 C   0  0  0  0  0  0  0  0  0  0  0  0
  1  2  2  0
  2  3  1  0
  3  4  2  0
  4  5  1  0
  5  6  2  0
  4  7  1  0
  7  8  2  3
  8  9  1  0
  9 10  2  0
 10 11  1  0
 11 12  2  0
 12 13  1  0
 13 14  2  0
  6  1  1  0
 14  9  1  0
M  END
>  <name>  (898) 
diphenyldiazene

>  <Outcome>  (898) 
2

>  <SMILES>  (898) 
c1ccc(N=Nc2ccccc2)cc1

$$$$

     RDKit          2D

 10  9  0  0  0  0  0  0  0  0999 V2000
    1.2939   -4.7369    0.0000 C   0  0  0  0  0  0  0  0  0  0  0  0
    1.2939   -3.9119    0.0000 C   0  0  0  0  0  0  0  0  0  0  0  0
    0.5795   -3.4994    0.0000 O   0  0  0  0  0  0  0  0  0  0  0  0
    0.5795   -2.6744    0.0000 Si  0  0  0  0  0  3  0  0  0  0  0  0
   -0.1350   -2.2619    0.0000 O   0  0  0  0  0  0  0  0  0  0  0  0
   -0.1350   -1.4369    0.0000 C   0  0  0  0  0  0  0  0  0  0  0  0
   -0.8495   -1.0244    0.0000 C   0  0  0  0  0  0  0  0  0  0  0  0
    1.2939   -2.2619    0.0000 O   0  0  0  0  0  0  0  0  0  0  0  0
    1.2939   -1.4369    0.0000 C   0  0  0  0  0  0  0  0  0  0  0  0
    2.0084   -1.0244    0.0000 C   0  0  0  0  0  0  0  0  0  0  0  0
  1  2  1  0
  2  3  1  0
  3  4  1  0
  4  5  1  0
  5  6  1  0
  6  7  1  0
  4  8  1  0
  8  9  1  0
  9 10  1  0
M  RAD  1   4   2
M  END
>  <name>  (899) 
triethoxysilane

>  <Outcome>  (899) 
1

>  <SMILES>  (899) 
CCO[Si](OCC)OCC

$$$$

     RDKit          2D

 37 40  0  0  0  0  0  0  0  0999 V2000
    6.2992   -1.1918    0.0000 C   0  0  0  0  0  0  0  0  0  0  0  0
    5.5847   -1.6043    0.0000 C   0  0  0  0  0  0  0  0  0  0  0  0
    4.8703   -1.1918    0.0000 C   0  0  0  0  0  0  0  0  0  0  0  0
    4.1558   -1.6043    0.0000 C   0  0  0  0  0  0  0  0  0  0  0  0
    3.4413   -1.1918    0.0000 N   0  0  0  0  0  0  0  0  0  0  0  0
    3.4413   -0.3668    0.0000 C   0  0  0  0  0  0  0  0  0  0  0  0
    4.1558    0.0457    0.0000 C   0  0  0  0  0  0  0  0  0  0  0  0
    4.1558    0.8707    0.0000 C   0  0  0  0  0  0  0  0  0  0  0  0
    4.8703    1.2832    0.0000 S   0  0  0  0  0  0  0  0  0  0  0  0
    5.5847    1.6957    0.0000 O   0  0  0  0  0  0  0  0  0  0  0  0
    4.4578    1.9976    0.0000 O   0  0  0  0  0  0  0  0  0  0  0  0
    5.2828    0.5687    0.0000 O   0  0  0  0  0  0  0  0  0  0  0  0
    3.4413    1.2832    0.0000 C   0  0  0  0  0  0  0  0  0  0  0  0
    3.4413    2.1082    0.0000 N   0  0  0  0  0  0  0  0  0  0  0  0
    2.7269    0.8707    0.0000 C   0  0  0  0  0  0  0  0  0  0  0  0
    2.7269    0.0457    0.0000 C   0  0  0  0  0  0  0  0  0  0  0  0
    2.0124   -0.3668    0.0000 C   0  0  0  0  0  0  0  0  0  0  0  0
    2.0124   -1.1918    0.0000 O   0  0  0  0  0  0  0  0  0  0  0  0
    1.2979    0.0457    0.0000 C   0  0  0  0  0  0  0  0  0  0  0  0
    0.5835   -0.3668    0.0000 C   0  0  0  0  0  0  0  0  0  0  0  0
   -0.1310    0.0457    0.0000 C   0  0  0  0  0  0  0  0  0  0  0  0
   -0.1310    0.8707    0.0000 C   0  0  0  0  0  0  0  0  0  0  0  0
    0.5835    1.2832    0.0000 C   0  0  0  0  0  0  0  0  0  0  0  0
    1.2979    0.8707    0.0000 C   0  0  0  0  0  0  0  0  0  0  0  0
    2.0124    1.2832    0.0000 C   0  0  0  0  0  0  0  0  0  0  0  0
    2.0124    2.1082    0.0000 O   0  0  0  0  0  0  0  0  0  0  0  0
    4.1558   -2.4293    0.0000 C   0  0  0  0  0  0  0  0  0  0  0  0
    4.8703   -2.8418    0.0000 C   0  0  0  0  0  0  0  0  0  0  0  0
    4.8703   -3.6668    0.0000 S   0  0  0  0  0  0  0  0  0  0  0  0
    4.0453   -3.6668    0.0000 O   0  0  0  0  0  0  0  0  0  0  0  0
    5.6953   -3.6668    0.0000 O   0  0  0  0  0  0  0  0  0  0  0  0
    4.8703   -4.4918    0.0000 N   0  0  0  0  0  0  0  0  0  0  0  0
    5.5847   -4.9043    0.0000 C   0  0  0  0  0  0  0  0  0  0  0  0
    5.5847   -5.7293    0.0000 C   0  0  0  0  0  0  0  0  0  0  0  0
    6.2992   -6.1418    0.0000 O   0  0  0  0  0  0  0  0  0  0  0  0
    5.5847   -2.4293    0.0000 C   0  0  0  0  0  0  0  0  0  0  0  0
    6.2992   -2.8418    0.0000 C   0  0  0  0  0  0  0  0  0  0  0  0
  1  2  1  0
  2  3  2  0
  3  4  1  0
  4  5  1  0
  5  6  1  0
  6  7  2  0
  7  8  1  0
  8  9  1  0
  9 10  2  0
  9 11  2  0
  9 12  1  0
  8 13  2  0
 13 14  1  0
 13 15  1  0
 15 16  2  0
  6 16  1  0
 16 17  1  0
 17 18  2  0
 17 19  1  0
 19 20  2  0
 20 21  1  0
 21 22  2  0
 22 23  1  0
 23 24  2  0
 19 24  1  0
 24 25  1  0
 15 25  1  0
 25 26  2  0
  4 27  2  0
 27 28  1  0
 28 29  1  0
 29 30  2  0
 29 31  2  0
 29 32  1  0
 32 33  1  0
 33 34  1  0
 34 35  1  0
 28 36  2  0
  2 36  1  0
 36 37  1  0
M  END
>  <name>  (900) 
sodium 1-amino-4-({3-[(2-hydroxyethyl)sulfamoyl]-4,5-dimethylphenyl}amino)-9,10-dioxo-9,10-dihydroanthracene-2-sulfonate

>  <Outcome>  (900) 
0

>  <SMILES>  (900) 
Cc1cc(Nc2cc(S(=O)(=O)O)c(N)c3c2C(=O)c2ccccc2C3=O)cc(S(=O)(=O)NCCO)c1C

$$$$

     RDKit          2D

  7  6  0  0  0  0  0  0  0  0999 V2000
    1.3723   -0.7806    0.0000 C   0  0  0  0  0  0  0  0  0  0  0  0
    0.9598   -0.0661    0.0000 O   0  0  0  0  0  0  0  0  0  0  0  0
    0.1348   -0.0661    0.0000 B   0  0  0  0  0  0  0  0  0  0  0  0
   -0.2777    0.6483    0.0000 O   0  0  0  0  0  0  0  0  0  0  0  0
   -1.1027    0.6483    0.0000 C   0  0  0  0  0  0  0  0  0  0  0  0
   -0.2777   -0.7806    0.0000 O   0  0  0  0  0  0  0  0  0  0  0  0
   -1.1027   -0.7806    0.0000 C   0  0  0  0  0  0  0  0  0  0  0  0
  1  2  1  0
  2  3  1  0
  3  4  1  0
  4  5  1  0
  3  6  1  0
  6  7  1  0
M  END
>  <name>  (901) 
Trimethyl borate

>  <Outcome>  (901) 
0

>  <SMILES>  (901) 
COB(OC)OC

$$$$

     RDKit          2D

  9  8  0  0  0  0  0  0  0  0999 V2000
    1.0461    3.0803    0.0000 C   0  0  0  0  0  0  0  0  0  0  0  0
    1.7605    2.6678    0.0000 C   0  0  0  0  0  0  0  0  0  0  0  0
    1.7605    1.8428    0.0000 C   0  0  0  0  0  0  0  0  0  0  0  0
    2.4750    1.4303    0.0000 C   0  0  0  0  0  0  0  0  0  0  0  0
    3.1895    1.8428    0.0000 C   0  0  0  0  0  0  0  0  0  0  0  0
    3.9040    1.4303    0.0000 C   0  0  0  0  0  0  0  0  0  0  0  0
    4.6184    1.8428    0.0000 C   0  0  0  0  0  0  0  0  0  0  0  0
    5.3329    1.4303    0.0000 C   0  0  0  0  0  0  0  0  0  0  0  0
    6.0474    1.8428    0.0000 C   0  0  0  0  0  0  0  0  0  0  0  0
  2  1  1  0
  2  3  2  3
  3  4  1  0
  4  5  1  0
  5  6  1  0
  6  7  1  0
  7  8  1  0
  8  9  1  0
M  END
>  <name>  (902) 
non-1-ene

>  <Outcome>  (902) 
0

>  <SMILES>  (902) 
CC=CCCCCCC

$$$$

     RDKit          2D

  6  4  0  0  0  0  0  0  0  0999 V2000
    0.0000    0.0000    0.0000 C   0  0  0  0  0  0  0  0  0  0  0  0
    1.2990    0.7500    0.0000 N   0  0  0  0  0  0  0  0  0  0  0  0
    2.5981   -0.0000    0.0000 C   0  0  0  0  0  0  0  0  0  0  0  0
    2.5981   -1.5000    0.0000 S   0  0  0  0  0  0  0  0  0  0  0  0
    3.8971    0.7500    0.0000 S   0  0  0  0  0  1  0  0  0  0  0  0
    0.0000    1.7500    0.0000 Na  0  0  0  0  0 15  0  0  0  0  0  0
  1  2  1  0
  2  3  1  0
  3  4  2  0
  3  5  1  0
M  CHG  2   5  -1   6   1
M  END
>  <name>  (903) 
sodium;N-methylcarbamodithioate

>  <Outcome>  (903) 
2

>  <SMILES>  (903) 
CNC(=S)[S-].[Na+]

$$$$

     RDKit          2D

 10 10  0  0  0  0  0  0  0  0999 V2000
    0.7145    2.8875    0.0000 N   0  0  0  0  0  0  0  0  0  0  0  0
    0.7145    2.0625    0.0000 C   0  0  0  0  0  0  0  0  0  0  0  0
    0.7145    1.2375    0.0000 C   0  0  0  0  0  0  0  0  0  0  0  0
    1.4289    0.8250    0.0000 C   0  0  0  0  0  0  0  0  0  0  0  0
    2.1434    1.2375    0.0000 F   0  0  0  0  0  0  0  0  0  0  0  0
    1.4289    0.0000    0.0000 C   0  0  0  0  0  0  0  0  0  0  0  0
    0.7145   -0.4125    0.0000 C   0  0  0  0  0  0  0  0  0  0  0  0
    0.0000    0.0000    0.0000 C   0  0  0  0  0  0  0  0  0  0  0  0
    0.0000    0.8250    0.0000 C   0  0  0  0  0  0  0  0  0  0  0  0
   -0.7145    1.2375    0.0000 F   0  0  0  0  0  0  0  0  0  0  0  0
  1  2  3  0
  2  3  1  0
  3  4  2  0
  4  5  1  0
  4  6  1  0
  6  7  2  0
  7  8  1  0
  8  9  2  0
  3  9  1  0
  9 10  1  0
M  END
>  <name>  (904) 
2,6-difluorobenzonitrile

>  <Outcome>  (904) 
1

>  <SMILES>  (904) 
N#Cc1c(F)cccc1F

$$$$

     RDKit          2D

 35 34  0  0  0  0  0  0  0  0999 V2000
   -5.6479    2.5313    0.0000 C   0  0  0  0  0  0  0  0  0  0  0  0
   -4.9334    2.9438    0.0000 C   0  0  0  0  0  0  0  0  0  0  0  0
   -4.2190    2.5313    0.0000 C   0  0  0  0  0  0  0  0  0  0  0  0
   -3.5045    2.9438    0.0000 C   0  0  0  0  0  0  0  0  0  0  0  0
   -2.7900    2.5313    0.0000 C   0  0  0  0  0  0  0  0  0  0  0  0
   -2.7900    1.7063    0.0000 C   0  0  0  0  0  0  0  0  0  0  0  0
   -2.0755    1.2938    0.0000 C   0  0  0  0  0  0  0  0  0  0  0  0
   -2.0755    2.9438    0.0000 C   0  0  0  0  0  0  0  0  0  0  0  0
   -1.3611    2.5313    0.0000 O   0  0  0  0  0  0  0  0  0  0  0  0
   -0.6466    2.9438    0.0000 C   0  0  0  0  0  0  0  0  0  0  0  0
   -0.6466    3.7688    0.0000 O   0  0  0  0  0  0  0  0  0  0  0  0
    0.0679    2.5313    0.0000 C   0  0  0  0  0  0  0  0  0  0  0  0
    0.7823    2.9438    0.0000 S   0  0  0  0  0  0  0  0  0  0  0  0
    1.4968    2.5313    0.0000 Sn  0  0  0  0  0  4  0  0  0  0  0  0
    1.0843    1.8168    0.0000 C   0  0  0  0  0  0  0  0  0  0  0  0
    1.4968    1.1023    0.0000 C   0  0  0  0  0  0  0  0  0  0  0  0
    1.0843    0.3879    0.0000 C   0  0  0  0  0  0  0  0  0  0  0  0
    0.2593    0.3879    0.0000 C   0  0  0  0  0  0  0  0  0  0  0  0
    1.9093    3.2457    0.0000 C   0  0  0  0  0  0  0  0  0  0  0  0
    2.7343    3.2457    0.0000 C   0  0  0  0  0  0  0  0  0  0  0  0
    3.1468    3.9602    0.0000 C   0  0  0  0  0  0  0  0  0  0  0  0
    3.9718    3.9602    0.0000 C   0  0  0  0  0  0  0  0  0  0  0  0
    2.2113    2.1188    0.0000 S   0  0  0  0  0  0  0  0  0  0  0  0
    2.9258    2.5313    0.0000 C   0  0  0  0  0  0  0  0  0  0  0  0
    3.6402    2.1188    0.0000 C   0  0  0  0  0  0  0  0  0  0  0  0
    3.6402    1.2938    0.0000 O   0  0  0  0  0  0  0  0  0  0  0  0
    4.3547    2.5313    0.0000 O   0  0  0  0  0  0  0  0  0  0  0  0
    5.0692    2.1188    0.0000 C   0  0  0  0  0  0  0  0  0  0  0  0
    5.7836    2.5313    0.0000 C   0  0  0  0  0  0  0  0  0  0  0  0
    5.7836    3.3563    0.0000 C   0  0  0  0  0  0  0  0  0  0  0  0
    6.4981    3.7688    0.0000 C   0  0  0  0  0  0  0  0  0  0  0  0
    6.4981    2.1188    0.0000 C   0  0  0  0  0  0  0  0  0  0  0  0
    7.2126    2.5313    0.0000 C   0  0  0  0  0  0  0  0  0  0  0  0
    7.9270    2.1188    0.0000 C   0  0  0  0  0  0  0  0  0  0  0  0
    8.6415    2.5313    0.0000 C   0  0  0  0  0  0  0  0  0  0  0  0
  1  2  1  0
  2  3  1  0
  3  4  1  0
  4  5  1  0
  5  6  1  0
  6  7  1  0
  5  8  1  0
  8  9  1  0
  9 10  1  0
 10 11  2  0
 10 12  1  0
 12 13  1  0
 13 14  1  0
 14 15  1  0
 15 16  1  0
 16 17  1  0
 17 18  1  0
 14 19  1  0
 19 20  1  0
 20 21  1  0
 21 22  1  0
 14 23  1  0
 23 24  1  0
 24 25  1  0
 25 26  2  0
 25 27  1  0
 27 28  1  0
 28 29  1  0
 29 30  1  0
 30 31  1  0
 29 32  1  0
 32 33  1  0
 33 34  1  0
 34 35  1  0
M  END
>  <name>  (905) 
2-ethylhexyl 2-{[dibutyl({2-[(2-ethylhexyl)oxy]-2-oxoethyl}sulfanyl)stannyl]sulfanyl}acetate

>  <Outcome>  (905) 
1

>  <SMILES>  (905) 
CCCCC(CC)COC(=O)CS[Sn](CCCC)(CCCC)SCC(=O)OCC(CC)CCCC

$$$$

     RDKit          2D

  5  4  0  0  0  0  0  0  0  0999 V2000
    2.0625   -0.7145    0.0000 C   0  0  0  0  0  0  0  0  0  0  0  0
    1.2375   -0.7145    0.0000 C   0  0  0  0  0  0  0  0  0  0  0  0
    0.8250   -1.4289    0.0000 C   0  0  0  0  0  0  0  0  0  0  0  0
    0.8250    0.0000    0.0000 C   0  0  0  0  0  0  0  0  0  0  0  0
   -0.0000    0.0000    0.0000 O   0  0  0  0  0  0  0  0  0  0  0  0
  1  2  2  0
  2  3  1  0
  2  4  1  0
  4  5  2  0
M  END
>  <name>  (906) 
2-methylprop-2-enal

>  <Outcome>  (906) 
1

>  <SMILES>  (906) 
C=C(C)C=O

$$$$

     RDKit          2D

 11 11  0  0  0  0  0  0  0  0999 V2000
   -0.7145    2.8875    0.0000 O   0  0  0  0  0  0  0  0  0  0  0  0
   -0.0000    2.4750    0.0000 C   0  0  0  0  0  0  0  0  0  0  0  0
    0.7145    2.0625    0.0000 N   0  0  0  0  0  0  0  0  0  0  0  0
    0.7145    1.2375    0.0000 C   0  0  0  0  0  0  0  0  0  0  0  0
    1.4289    0.8250    0.0000 C   0  0  0  0  0  0  0  0  0  0  0  0
    1.4289    0.0000    0.0000 C   0  0  0  0  0  0  0  0  0  0  0  0
    0.7145   -0.4125    0.0000 C   0  0  0  0  0  0  0  0  0  0  0  0
    0.7145   -1.2375    0.0000 Cl  0  0  0  0  0  0  0  0  0  0  0  0
   -0.0000    0.0000    0.0000 C   0  0  0  0  0  0  0  0  0  0  0  0
   -0.7145   -0.4125    0.0000 Cl  0  0  0  0  0  0  0  0  0  0  0  0
   -0.0000    0.8250    0.0000 C   0  0  0  0  0  0  0  0  0  0  0  0
  1  2  2  0
  2  3  2  0
  3  4  1  0
  4  5  2  0
  5  6  1  0
  6  7  2  0
  7  8  1  0
  7  9  1  0
  9 10  1  0
  9 11  2  0
  4 11  1  0
M  END
>  <name>  (907) 
1,2-dichloro-4-isocyanatobenzene

>  <Outcome>  (907) 
1

>  <SMILES>  (907) 
O=C=Nc1ccc(Cl)c(Cl)c1

$$$$

     RDKit          2D

 16 15  0  0  0  0  0  0  0  0999 V2000
   -0.3820    6.3803    0.0000 C   0  0  0  0  0  0  0  0  0  0  0  0
   -0.3820    5.5553    0.0000 C   0  0  0  0  0  0  0  0  0  0  0  0
    0.3324    5.1428    0.0000 C   0  0  0  0  0  0  0  0  0  0  0  0
    0.3324    4.3178    0.0000 C   0  0  0  0  0  0  0  0  0  0  0  0
    1.0469    3.9053    0.0000 O   0  0  0  0  0  0  0  0  0  0  0  0
    1.0469    3.0803    0.0000 C   0  0  0  0  0  0  0  0  0  0  0  0
    0.3324    2.6678    0.0000 O   0  0  0  0  0  0  0  0  0  0  0  0
    1.7614    2.6678    0.0000 C   0  0  0  0  0  0  0  0  0  0  0  0
    1.7614    1.8428    0.0000 C   0  0  0  0  0  0  0  0  0  0  0  0
    2.4758    1.4303    0.0000 C   0  0  0  0  0  0  0  0  0  0  0  0
    2.4758    0.6053    0.0000 O   0  0  0  0  0  0  0  0  0  0  0  0
    3.1903    1.8428    0.0000 O   0  0  0  0  0  0  0  0  0  0  0  0
    3.9048    1.4303    0.0000 C   0  0  0  0  0  0  0  0  0  0  0  0
    4.6193    1.8428    0.0000 C   0  0  0  0  0  0  0  0  0  0  0  0
    5.3337    1.4303    0.0000 C   0  0  0  0  0  0  0  0  0  0  0  0
    6.0482    1.8428    0.0000 C   0  0  0  0  0  0  0  0  0  0  0  0
  1  2  1  0
  2  3  1  0
  3  4  1  0
  4  5  1  0
  5  6  1  0
  6  7  2  0
  8  6  1  0
  8  9  2  3
  9 10  1  0
 10 11  2  0
 10 12  1  0
 12 13  1  0
 13 14  1  0
 14 15  1  0
 15 16  1  0
M  END
>  <name>  (908) 
1,4-dibutyl (2Z)-but-2-enedioate

>  <Outcome>  (908) 
0

>  <SMILES>  (908) 
CCCCOC(=O)C=CC(=O)OCCCC

$$$$

     RDKit          2D

 10  9  0  0  0  0  0  0  0  0999 V2000
    1.0496    1.4067    0.0000 C   0  0  0  0  0  0  0  0  0  0  0  0
    1.7640    1.8192    0.0000 C   0  0  0  0  0  0  0  0  0  0  0  0
    2.4785    1.4067    0.0000 C   0  0  0  0  0  0  0  0  0  0  0  0
    2.4785    0.5817    0.0000 O   0  0  0  0  0  0  0  0  0  0  0  0
    3.1930    1.8192    0.0000 O   0  0  0  0  0  0  0  0  0  0  0  0
    3.9075    1.4067    0.0000 C   0  0  0  0  0  0  0  0  0  0  0  0
    4.6219    1.8192    0.0000 C   0  0  0  0  0  0  0  0  0  0  0  0
    5.3364    1.4067    0.0000 N   0  0  0  0  0  0  0  0  0  0  0  0
    6.0509    1.8192    0.0000 C   0  0  0  0  0  0  0  0  0  0  0  0
    5.3364    0.5817    0.0000 C   0  0  0  0  0  0  0  0  0  0  0  0
  1  2  2  0
  2  3  1  0
  3  4  2  0
  3  5  1  0
  5  6  1  0
  6  7  1  0
  7  8  1  0
  8  9  1  0
  8 10  1  0
M  END
>  <name>  (909) 
2-(dimethylamino)ethyl acrylate

>  <Outcome>  (909) 
1

>  <SMILES>  (909) 
C=CC(=O)OCCN(C)C

$$$$

     RDKit          2D

 11 11  0  0  0  0  0  0  0  0999 V2000
   -3.5736    1.2902    0.0000 C   0  0  0  0  0  0  0  0  0  0  0  0
   -2.1470    1.7537    0.0000 C   0  0  0  0  0  0  0  0  0  0  0  0
   -1.0323    0.7500    0.0000 C   0  0  0  0  0  0  0  0  0  0  0  0
    0.3943    1.2135    0.0000 C   0  0  0  0  0  0  0  0  0  0  0  0
    0.7062    2.6807    0.0000 C   0  0  0  0  0  0  0  0  0  0  0  0
   -0.4086    3.6844    0.0000 C   0  0  0  0  0  0  0  0  0  0  0  0
   -1.8351    3.2209    0.0000 C   0  0  0  0  0  0  0  0  0  0  0  0
    1.2760    0.0000    0.0000 N   0  0  0  0  0  2  0  0  0  0  0  0
    0.3943   -1.2135    0.0000 N   0  0  0  0  0  0  0  0  0  0  0  0
   -1.0323   -0.7500    0.0000 N   0  0  0  0  0  0  0  0  0  0  0  0
    2.2760    0.0000    0.0000 Na  0  0  0  0  0 15  0  0  0  0  0  0
  1  2  1  0
  2  3  2  0
  3  4  1  0
  4  5  2  0
  5  6  1  0
  6  7  2  0
  4  8  1  0
  8  9  1  0
  9 10  2  0
  7  2  1  0
 10  3  1  0
M  CHG  2   8  -1  11   1
M  END
>  <name>  (910) 
sodium;4-methylbenzotriazol-1-ide

>  <Outcome>  (910) 
2

>  <SMILES>  (910) 
Cc1cccc2[n-]nnc12.[Na+]

$$$$

     RDKit          2D

  7  6  0  0  0  0  0  0  0  0999 V2000
    1.2791    2.2000    0.0000 C   0  0  0  0  0  0  0  0  0  0  0  0
    0.8666    1.4855    0.0000 C   0  0  0  0  0  0  0  0  0  0  0  0
    0.0416    1.4855    0.0000 O   0  0  0  0  0  0  0  0  0  0  0  0
    1.2791    0.7711    0.0000 C   0  0  0  0  0  0  0  0  0  0  0  0
    0.8666    0.0566    0.0000 C   0  0  0  0  0  0  0  0  0  0  0  0
    1.2791   -0.6579    0.0000 C   0  0  0  0  0  0  0  0  0  0  0  0
    0.0416    0.0566    0.0000 C   0  0  0  0  0  0  0  0  0  0  0  0
  1  2  1  0
  2  3  2  0
  2  4  1  0
  4  5  1  0
  5  6  1  0
  5  7  1  0
M  END
>  <name>  (911) 
4-methylpentan-2-one

>  <Outcome>  (911) 
1

>  <SMILES>  (911) 
CC(=O)CC(C)C

$$$$

     RDKit          2D

 26 27  0  0  0  0  0  0  0  0999 V2000
    0.0315   -0.0398    0.0000 C   0  0  0  0  0  0  0  0  0  0  0  0
   -0.6830   -0.4523    0.0000 O   0  0  0  0  0  0  0  0  0  0  0  0
   -0.6830   -1.2773    0.0000 C   0  0  0  0  0  0  0  0  0  0  0  0
    0.0315   -1.6898    0.0000 C   0  0  0  0  0  0  0  0  0  0  0  0
    0.7460   -1.2773    0.0000 C   0  0  0  0  0  0  0  0  0  0  0  0
    0.7460   -0.4523    0.0000 O   0  0  0  0  0  0  0  0  0  0  0  0
    1.4604   -1.6898    0.0000 O   0  0  0  0  0  0  0  0  0  0  0  0
    1.4604   -2.5148    0.0000 C   0  0  0  0  0  0  0  0  0  0  0  0
    0.0315   -2.5148    0.0000 C   0  0  0  0  0  0  0  0  0  0  0  0
    0.7460   -2.9273    0.0000 C   0  0  0  0  0  0  0  0  0  0  0  0
    0.7460   -3.7523    0.0000 C   0  0  0  0  0  0  0  0  0  0  0  0
    0.0315   -4.1648    0.0000 C   0  0  0  0  0  0  0  0  0  0  0  0
   -0.6830   -3.7523    0.0000 C   0  0  0  0  0  0  0  0  0  0  0  0
   -0.6830   -2.9273    0.0000 C   0  0  0  0  0  0  0  0  0  0  0  0
   -1.3974   -2.5148    0.0000 C   0  0  0  0  0  0  0  0  0  0  0  0
   -1.3974   -1.6898    0.0000 O   0  0  0  0  0  0  0  0  0  0  0  0
   -2.1119   -1.2773    0.0000 C   0  0  0  0  0  0  0  0  0  0  0  0
   -2.8264   -1.6898    0.0000 C   0  0  0  0  0  0  0  0  0  0  0  0
   -3.5408   -1.2773    0.0000 C   0  0  0  0  0  0  0  0  0  0  0  0
   -3.5408   -0.4523    0.0000 C   0  0  0  0  0  0  0  0  0  0  0  0
   -2.8264   -0.0398    0.0000 C   0  0  0  0  0  0  0  0  0  0  0  0
   -2.8264    0.7852    0.0000 C   0  0  0  0  0  0  0  0  0  0  0  0
   -2.8264    1.6102    0.0000 F   0  0  0  0  0  0  0  0  0  0  0  0
   -2.0014    0.7852    0.0000 F   0  0  0  0  0  0  0  0  0  0  0  0
   -3.6514    0.7852    0.0000 F   0  0  0  0  0  0  0  0  0  0  0  0
   -2.1119   -0.4523    0.0000 N   0  0  0  0  0  0  0  0  0  0  0  0
  1  2  1  0
  3  2  1  0
  3  4  2  3
  4  5  1  0
  5  6  2  0
  5  7  1  0
  7  8  1  0
  4  9  1  0
  9 10  2  0
 10 11  1  0
 11 12  2  0
 12 13  1  0
 13 14  2  0
  9 14  1  0
 14 15  1  0
 15 16  1  0
 16 17  1  0
 17 18  2  0
 18 19  1  0
 19 20  2  0
 20 21  1  0
 21 22  1  0
 22 23  1  0
 22 24  1  0
 22 25  1  0
 21 26  2  0
 17 26  1  0
M  END
>  <name>  (912) 
unnamed [117428-22-5]

>  <Outcome>  (912) 
1

>  <SMILES>  (912) 
COC=C(C(=O)OC)c1ccccc1COc1cccc(C(F)(F)F)n1

$$$$

     RDKit          2D

 16 16  0  0  0  0  0  0  0  0999 V2000
    7.2760   -2.5981    0.0000 C   0  0  0  0  0  0  0  0  0  0  0  0
    5.7760   -2.5981    0.0000 C   0  0  0  0  0  0  0  0  0  0  0  0
    5.0260   -1.2990    0.0000 C   0  0  0  0  0  0  0  0  0  0  0  0
    3.5260   -1.2990    0.0000 C   0  0  0  0  0  0  0  0  0  0  0  0
    2.7760    0.0000    0.0000 C   0  0  0  0  0  0  0  0  0  0  0  0
    1.2760    0.0000    0.0000 C   0  0  0  0  0  0  0  0  0  0  0  0
    0.3943    1.2135    0.0000 C   0  0  0  0  0  0  0  0  0  0  0  0
   -1.0323    0.7500    0.0000 C   0  0  0  0  0  0  0  0  0  0  0  0
   -1.0323   -0.7500    0.0000 C   0  0  0  0  0  0  0  0  0  0  0  0
    0.3943   -1.2135    0.0000 C   0  0  0  0  0  0  0  0  0  0  0  0
    0.8578   -2.6401    0.0000 O   0  0  0  0  0  0  0  0  0  0  0  0
    0.8578    2.6401    0.0000 C   0  0  0  0  0  0  0  0  0  0  0  0
    2.3250    2.9520    0.0000 C   0  0  0  0  0  0  0  0  0  0  0  0
    3.3287    1.8373    0.0000 O   0  0  0  0  0  0  0  0  0  0  0  0
    2.7886    4.3786    0.0000 O   0  0  0  0  0  0  0  0  0  0  0  0
    4.2558    4.6904    0.0000 C   0  0  0  0  0  0  0  0  0  0  0  0
  1  2  1  0
  2  3  1  0
  3  4  1  0
  4  5  1  0
  5  6  1  0
  6  7  1  0
  7  8  1  0
  8  9  1  0
  9 10  1  0
 10 11  2  0
  7 12  1  0
 12 13  1  0
 13 14  2  0
 13 15  1  0
 15 16  1  0
 10  6  1  0
M  END
>  <name>  (913) 
methyl 2-(3-oxo-2-pentylcyclopentyl)acetate

>  <Outcome>  (913) 
2

>  <SMILES>  (913) 
CCCCCC1C(=O)CCC1CC(=O)OC

$$$$

     RDKit          2D

  8  8  0  0  0  0  0  0  0  0999 V2000
    1.4805    0.6325    0.0000 C   0  0  0  0  0  0  0  0  0  0  0  0
    0.7661    0.2200    0.0000 C   0  0  0  0  0  0  0  0  0  0  0  0
    0.0516    0.6325    0.0000 C   0  0  0  0  0  0  0  0  0  0  0  0
   -0.6629    0.2200    0.0000 C   0  0  0  0  0  0  0  0  0  0  0  0
   -0.6629   -0.6050    0.0000 C   0  0  0  0  0  0  0  0  0  0  0  0
   -1.3774   -1.0175    0.0000 Cl  0  0  0  0  0  0  0  0  0  0  0  0
    0.0516   -1.0175    0.0000 C   0  0  0  0  0  0  0  0  0  0  0  0
    0.7661   -0.6050    0.0000 C   0  0  0  0  0  0  0  0  0  0  0  0
  1  2  1  0
  3  2  2  0
  4  3  1  0
  5  4  2  0
  5  6  1  0
  7  5  1  0
  8  7  2  0
  2  8  1  0
M  END
>  <name>  (914) 
4-Chlorotoluene

>  <Outcome>  (914) 
0

>  <SMILES>  (914) 
Cc1ccc(Cl)cc1

$$$$

     RDKit          2D

 26 28  0  0  0  0  0  0  0  0999 V2000
    2.8366    2.4527    0.0000 O   0  0  0  0  0  0  0  0  0  0  0  0
    3.5511    2.8652    0.0000 C   0  0  0  0  0  0  0  0  0  0  0  0
    4.2655    2.4527    0.0000 N   0  0  0  0  0  0  0  0  0  0  0  0
    4.2655    1.6277    0.0000 C   0  0  0  0  0  0  0  0  0  0  0  0
    4.9800    1.2152    0.0000 C   0  0  0  0  0  0  0  0  0  0  0  0
    4.9800    0.3902    0.0000 C   0  0  0  0  0  0  0  0  0  0  0  0
    4.2655   -0.0223    0.0000 C   0  0  0  0  0  0  0  0  0  0  0  0
    3.5511    0.3902    0.0000 C   0  0  0  0  0  0  0  0  0  0  0  0
    3.5511    1.2152    0.0000 C   0  0  0  0  0  0  0  0  0  0  0  0
    3.5511    3.6902    0.0000 N   0  0  0  0  0  0  0  0  0  0  0  0
    2.8366    4.1027    0.0000 C   0  0  0  0  0  0  0  0  0  0  0  0
    2.1221    3.6902    0.0000 C   0  0  0  0  0  0  0  0  0  0  0  0
    1.4077    4.1027    0.0000 C   0  0  0  0  0  0  0  0  0  0  0  0
    1.4077    4.9277    0.0000 C   0  0  0  0  0  0  0  0  0  0  0  0
    2.1221    5.3402    0.0000 C   0  0  0  0  0  0  0  0  0  0  0  0
    2.8366    4.9277    0.0000 C   0  0  0  0  0  0  0  0  0  0  0  0
    3.5511    5.3402    0.0000 N   0  0  0  0  0  0  0  0  0  0  0  0
    4.2655    4.9277    0.0000 S   0  0  0  0  0  0  0  0  0  0  0  0
    3.8530    4.2132    0.0000 O   0  0  0  0  0  0  0  0  0  0  0  0
    4.6780    5.6422    0.0000 O   0  0  0  0  0  0  0  0  0  0  0  0
    4.9800    4.5152    0.0000 C   0  0  0  0  0  0  0  0  0  0  0  0
    5.6945    4.9277    0.0000 C   0  0  0  0  0  0  0  0  0  0  0  0
    6.4089    4.5152    0.0000 C   0  0  0  0  0  0  0  0  0  0  0  0
    6.4089    3.6902    0.0000 C   0  0  0  0  0  0  0  0  0  0  0  0
    5.6945    3.2777    0.0000 C   0  0  0  0  0  0  0  0  0  0  0  0
    4.9800    3.6902    0.0000 C   0  0  0  0  0  0  0  0  0  0  0  0
  1  2  2  0
  2  3  1  0
  3  4  1  0
  4  5  2  0
  5  6  1  0
  6  7  2  0
  7  8  1  0
  8  9  2  0
  4  9  1  0
  2 10  1  0
 10 11  1  0
 11 12  2  0
 12 13  1  0
 13 14  2  0
 14 15  1  0
 15 16  2  0
 11 16  1  0
 16 17  1  0
 17 18  1  0
 18 19  2  0
 18 20  2  0
 18 21  1  0
 21 22  2  0
 22 23  1  0
 23 24  2  0
 24 25  1  0
 25 26  2  0
 21 26  1  0
M  END
>  <name>  (915) 
1-(2-benzenesulfonamidophenyl)-3-phenylurea

>  <Outcome>  (915) 
0

>  <SMILES>  (915) 
O=C(Nc1ccccc1)Nc1ccccc1NS(=O)(=O)c1ccccc1

$$$$

     RDKit          2D

 68 68  0  0  0  0  0  0  0  0999 V2000
   -7.8546   -8.0803    0.0000 C   0  0  0  0  0  0  0  0  0  0  0  0
   -7.1401   -8.4928    0.0000 C   0  0  0  0  0  0  0  0  0  0  0  0
   -6.4256   -8.0803    0.0000 C   0  0  0  0  0  0  0  0  0  0  0  0
   -5.7112   -8.4928    0.0000 C   0  0  0  0  0  0  0  0  0  0  0  0
   -4.9967   -8.0803    0.0000 C   0  0  0  0  0  0  0  0  0  0  0  0
   -4.2822   -8.4928    0.0000 C   0  0  0  0  0  0  0  0  0  0  0  0
   -3.5678   -8.0803    0.0000 C   0  0  0  0  0  0  0  0  0  0  0  0
   -2.8533   -8.4928    0.0000 C   0  0  0  0  0  0  0  0  0  0  0  0
   -2.1388   -8.0803    0.0000 C   0  0  0  0  0  0  0  0  0  0  0  0
   -1.4244   -8.4928    0.0000 C   0  0  0  0  0  0  0  0  0  0  0  0
   -0.7099   -8.0803    0.0000 C   0  0  0  0  0  0  0  0  0  0  0  0
   -0.7099   -7.2553    0.0000 C   0  0  0  0  0  0  0  0  0  0  0  0
    0.0046   -6.8428    0.0000 C   0  0  0  0  0  0  0  0  0  0  0  0
    0.0046   -6.0178    0.0000 C   0  0  0  0  0  0  0  0  0  0  0  0
    0.7191   -5.6053    0.0000 C   0  0  0  0  0  0  0  0  0  0  0  0
    0.7191   -4.7803    0.0000 C   0  0  0  0  0  0  0  0  0  0  0  0
    1.4335   -4.3678    0.0000 C   0  0  0  0  0  0  0  0  0  0  0  0
    1.4335   -3.5428    0.0000 C   0  0  0  0  0  0  0  0  0  0  0  0
    0.7191   -3.1303    0.0000 O   0  0  0  0  0  0  0  0  0  0  0  0
    2.1480   -3.1303    0.0000 O   0  0  0  0  0  0  0  0  0  0  0  0
    2.1480   -2.3053    0.0000 C   0  0  0  0  0  0  0  0  0  0  0  0
    2.8625   -1.8928    0.0000 C   0  0  0  0  0  0  0  0  0  0  0  0
    3.5769   -2.3053    0.0000 O   0  0  0  0  0  0  0  0  0  0  0  0
    3.5769   -3.1303    0.0000 C   0  0  0  0  0  0  0  0  0  0  0  0
    2.8625   -3.5428    0.0000 O   0  0  0  0  0  0  0  0  0  0  0  0
    4.2914   -3.5428    0.0000 C   0  0  0  0  0  0  0  0  0  0  0  0
    4.2914   -4.3678    0.0000 C   0  0  0  0  0  0  0  0  0  0  0  0
    5.0059   -4.7803    0.0000 C   0  0  0  0  0  0  0  0  0  0  0  0
    5.0059   -5.6053    0.0000 C   0  0  0  0  0  0  0  0  0  0  0  0
    5.7204   -6.0178    0.0000 C   0  0  0  0  0  0  0  0  0  0  0  0
    5.7204   -6.8428    0.0000 C   0  0  0  0  0  0  0  0  0  0  0  0
    6.4348   -7.2553    0.0000 C   0  0  0  0  0  0  0  0  0  0  0  0
    6.4348   -8.0803    0.0000 C   0  0  0  0  0  0  0  0  0  0  0  0
    7.1493   -8.4928    0.0000 C   0  0  0  0  0  0  0  0  0  0  0  0
    7.1493   -9.3178    0.0000 C   0  0  0  0  0  0  0  0  0  0  0  0
    6.4348   -9.7303    0.0000 C   0  0  0  0  0  0  0  0  0  0  0  0
    6.4348  -10.5553    0.0000 C   0  0  0  0  0  0  0  0  0  0  0  0
    5.7204  -10.9678    0.0000 C   0  0  0  0  0  0  0  0  0  0  0  0
    5.7204  -11.7928    0.0000 C   0  0  0  0  0  0  0  0  0  0  0  0
    5.0059  -12.2053    0.0000 C   0  0  0  0  0  0  0  0  0  0  0  0
    5.0059  -13.0303    0.0000 C   0  0  0  0  0  0  0  0  0  0  0  0
    4.2914  -13.4428    0.0000 C   0  0  0  0  0  0  0  0  0  0  0  0
    2.8625   -1.0678    0.0000 C   0  0  0  0  0  0  0  0  0  0  0  0
    2.1950   -0.5829    0.0000 O   0  0  0  0  0  0  0  0  0  0  0  0
    2.4500    0.2018    0.0000 C   0  0  0  0  0  0  0  0  0  0  0  0
    3.2750    0.2018    0.0000 C   0  0  0  0  0  0  0  0  0  0  0  0
    3.7599    0.8692    0.0000 O   0  0  0  0  0  0  0  0  0  0  0  0
    3.5299   -0.5829    0.0000 C   0  0  0  0  0  0  0  0  0  0  0  0
    4.3145   -0.8378    0.0000 O   0  0  0  0  0  0  0  0  0  0  0  0
    4.9276   -0.2858    0.0000 C   0  0  0  0  0  0  0  0  0  0  0  0
    4.7561    0.5212    0.0000 O   0  0  0  0  0  0  0  0  0  0  0  0
    5.7123   -0.5407    0.0000 C   0  0  0  0  0  0  0  0  0  0  0  0
    6.3253    0.0113    0.0000 C   0  0  0  0  0  0  0  0  0  0  0  0
    7.1100   -0.2436    0.0000 C   0  0  0  0  0  0  0  0  0  0  0  0
    7.7231    0.3084    0.0000 C   0  0  0  0  0  0  0  0  0  0  0  0
    8.5077    0.0535    0.0000 C   0  0  0  0  0  0  0  0  0  0  0  0
    9.1208    0.6055    0.0000 C   0  0  0  0  0  0  0  0  0  0  0  0
    9.9054    0.3506    0.0000 C   0  0  0  0  0  0  0  0  0  0  0  0
   10.5185    0.9026    0.0000 C   0  0  0  0  0  0  0  0  0  0  0  0
   11.3031    0.6477    0.0000 C   0  0  0  0  0  0  0  0  0  0  0  0
   11.9162    1.1997    0.0000 C   0  0  0  0  0  0  0  0  0  0  0  0
   11.7447    2.0067    0.0000 C   0  0  0  0  0  0  0  0  0  0  0  0
   12.3578    2.5587    0.0000 C   0  0  0  0  0  0  0  0  0  0  0  0
   12.1863    3.3657    0.0000 C   0  0  0  0  0  0  0  0  0  0  0  0
   12.7993    3.9177    0.0000 C   0  0  0  0  0  0  0  0  0  0  0  0
   12.6278    4.7247    0.0000 C   0  0  0  0  0  0  0  0  0  0  0  0
   13.2409    5.2767    0.0000 C   0  0  0  0  0  0  0  0  0  0  0  0
   13.0694    6.0837    0.0000 C   0  0  0  0  0  0  0  0  0  0  0  0
  1  2  1  0
  2  3  1  0
  3  4  1  0
  4  5  1  0
  5  6  1  0
  6  7  1  0
  7  8  1  0
  9  8  1  0
  9 10  2  3
 10 11  1  0
 11 12  1  0
 12 13  1  0
 13 14  1  0
 14 15  1  0
 15 16  1  0
 16 17  1  0
 17 18  1  0
 18 19  2  0
 18 20  1  0
 20 21  1  0
 21 22  1  0
 22 23  1  0
 23 24  1  0
 24 25  2  0
 24 26  1  0
 26 27  1  0
 27 28  1  0
 28 29  1  0
 29 30  1  0
 30 31  1  0
 31 32  1  0
 33 32  1  0
 33 34  2  3
 34 35  1  0
 35 36  1  0
 36 37  1  0
 37 38  1  0
 38 39  1  0
 39 40  1  0
 40 41  1  0
 41 42  1  0
 22 43  1  0
 43 44  1  0
 44 45  1  0
 45 46  1  0
 46 47  1  0
 46 48  1  0
 43 48  1  0
 48 49  1  0
 49 50  1  0
 50 51  2  0
 50 52  1  0
 52 53  1  0
 53 54  1  0
 54 55  1  0
 55 56  1  0
 56 57  1  0
 57 58  1  0
 59 58  1  0
 59 60  2  3
 60 61  1  0
 61 62  1  0
 62 63  1  0
 63 64  1  0
 64 65  1  0
 65 66  1  0
 66 67  1  0
 67 68  1  0
M  END
>  <name>  (916) 
anhydro-D-glucitol trioleate

>  <Outcome>  (916) 
0

>  <SMILES>  (916) 
CCCCCCCCC=CCCCCCCCC(=O)OCC(OC(=O)CCCCCCCC=CCCCCCCCC)C1OCC(O)C1OC(=O)CCCCCCCC=CCCCCCCCC

$$$$

     RDKit          2D

 10 10  0  0  0  0  0  0  0  0999 V2000
    2.1829    0.2652    0.0000 O   0  0  0  0  0  0  0  0  0  0  0  0
    1.4684    0.6777    0.0000 N   0  0  0  0  0  0  0  0  0  0  0  0
    1.4684    1.5027    0.0000 O   0  0  0  0  0  0  0  0  0  0  0  0
    0.7540    0.2652    0.0000 C   0  0  0  0  0  0  0  0  0  0  0  0
    0.0395    0.6777    0.0000 C   0  0  0  0  0  0  0  0  0  0  0  0
   -0.6750    0.2652    0.0000 C   0  0  0  0  0  0  0  0  0  0  0  0
   -0.6750   -0.5598    0.0000 C   0  0  0  0  0  0  0  0  0  0  0  0
    0.0395   -0.9723    0.0000 C   0  0  0  0  0  0  0  0  0  0  0  0
    0.7540   -0.5598    0.0000 C   0  0  0  0  0  0  0  0  0  0  0  0
    1.4684   -0.9723    0.0000 Cl  0  0  0  0  0  0  0  0  0  0  0  0
  1  2  1  0
  2  3  2  0
  2  4  1  0
  5  4  2  0
  6  5  1  0
  7  6  2  0
  8  7  1  0
  9  8  2  0
  9 10  1  0
  4  9  1  0
M  CHG  2   1  -1   2   1
M  END
>  <name>  (917) 
1-Chloro-2-nitrobenzene

>  <Outcome>  (917) 
1

>  <SMILES>  (917) 
O=[N+]([O-])c1ccccc1Cl

$$$$

     RDKit          2D

  7  7  0  0  0  0  0  0  0  0999 V2000
    0.7145    2.0625    0.0000 C   0  0  0  0  0  0  0  0  0  0  0  0
    0.7145    1.2375    0.0000 C   0  0  0  0  0  0  0  0  0  0  0  0
    1.4289    0.8250    0.0000 C   0  0  0  0  0  0  0  0  0  0  0  0
    1.4289   -0.0000    0.0000 C   0  0  0  0  0  0  0  0  0  0  0  0
    0.7145   -0.4125    0.0000 C   0  0  0  0  0  0  0  0  0  0  0  0
    0.0000   -0.0000    0.0000 C   0  0  0  0  0  0  0  0  0  0  0  0
    0.0000    0.8250    0.0000 N   0  0  0  0  0  0  0  0  0  0  0  0
  1  2  1  0
  2  3  2  0
  3  4  1  0
  4  5  2  0
  5  6  1  0
  6  7  2  0
  2  7  1  0
M  END
>  <name>  (918) 
2-methylpyridine

>  <Outcome>  (918) 
1

>  <SMILES>  (918) 
Cc1ccccn1

$$$$

     RDKit          2D

  5  4  0  0  0  0  0  0  0  0999 V2000
    2.0605   -0.7179    0.0000 O   0  0  0  0  0  0  0  0  0  0  0  0
    1.2355   -0.7179    0.0000 C   0  0  0  0  0  0  0  0  0  0  0  0
    0.8230   -1.4323    0.0000 O   0  0  0  0  0  0  0  0  0  0  0  0
    0.8230   -0.0034    0.0000 C   0  0  0  0  0  0  0  0  0  0  0  0
   -0.0020   -0.0034    0.0000 O   0  0  0  0  0  0  0  0  0  0  0  0
  1  2  2  0
  2  3  1  0
  2  4  1  0
  4  5  1  0
M  END
>  <name>  (919) 
2-hydroxyacetic acid

>  <Outcome>  (919) 
0

>  <SMILES>  (919) 
O=C(O)CO

$$$$

     RDKit          2D

  5  4  0  0  0  0  0  0  0  0999 V2000
    1.2814   -0.3676    0.0000 O   0  0  0  0  0  0  0  0  0  0  0  0
    0.4564   -0.3676    0.0000 C   0  0  0  0  0  0  0  0  0  0  0  0
    0.0439   -1.0821    0.0000 O   0  0  0  0  0  0  0  0  0  0  0  0
    0.0439    0.3469    0.0000 C   0  0  0  0  0  0  0  0  0  0  0  0
   -0.7811    0.3469    0.0000 Cl  0  0  0  0  0  0  0  0  0  0  0  0
  1  2  1  0
  2  3  2  0
  2  4  1  0
  4  5  1  0
M  END
>  <name>  (920) 
Chloroacetic acid

>  <Outcome>  (920) 
0

>  <SMILES>  (920) 
O=C(O)CCl

$$$$

     RDKit          2D

  7  5  0  0  0  0  0  0  0  0999 V2000
    0.0000    0.0000    0.0000 C   0  0  0  0  0  0  0  0  0  0  0  0
    0.0000    1.5000    0.0000 N   0  0  0  0  0  0  0  0  0  0  0  0
   -0.0000   -1.5000    0.0000 S   0  0  0  0  0  0  0  0  0  0  0  0
    2.2990    0.0000    0.0000 C   0  0  0  0  0  0  0  0  0  0  0  0
    2.2990   -1.5000    0.0000 N   0  0  0  0  0  0  0  0  0  0  0  0
    3.5981    0.7500    0.0000 N   0  0  0  0  0  0  0  0  0  0  0  0
    1.0000    0.7500    0.0000 N   0  0  0  0  0  0  0  0  0  0  0  0
  1  2  3  0
  1  3  1  0
  4  5  2  0
  4  6  1  0
  4  7  1  0
M  END
>  <name>  (921) 
guanidine;thiocyanic acid

>  <Outcome>  (921) 
2

>  <SMILES>  (921) 
N#CS.N=C(N)N

$$$$

     RDKit          2D

 11 10  0  0  0  0  0  0  0  0999 V2000
    0.0000    0.0000    0.0000 C   0  0  0  0  0  0  0  0  0  0  0  0
    1.2990    0.7500    0.0000 C   0  0  0  0  0  0  0  0  0  0  0  0
    2.5981   -0.0000    0.0000 C   0  0  0  0  0  0  0  0  0  0  0  0
    3.8971    0.7500    0.0000 C   0  0  0  0  0  0  0  0  0  0  0  0
    5.1962   -0.0000    0.0000 C   0  0  0  0  0  0  0  0  0  0  0  0
    6.4952    0.7500    0.0000 C   0  0  0  0  0  0  0  0  0  0  0  0
    7.7942   -0.0000    0.0000 C   0  0  0  0  0  0  0  0  0  0  0  0
    6.4952    2.2500    0.0000 C   0  0  0  0  0  0  0  0  0  0  0  0
    1.2990    2.2500    0.0000 C   0  0  0  0  0  0  0  0  0  0  0  0
    2.5981    3.0000    0.0000 C   0  0  0  0  0  0  0  0  0  0  0  0
    2.5981    4.5000    0.0000 O   0  0  0  0  0  0  0  0  0  0  0  0
  1  2  1  0
  2  3  1  0
  3  4  1  0
  4  5  1  0
  5  6  2  0
  6  7  1  0
  6  8  1  0
  2  9  1  0
  9 10  1  0
 10 11  1  0
M  END
>  <name>  (922) 
3,7-dimethyloct-6-en-1-ol

>  <Outcome>  (922) 
2

>  <SMILES>  (922) 
CC(C)=CCCC(C)CCO

$$$$

     RDKit          2D

 22 24  0  0  0  0  0  0  0  0999 V2000
   -1.2754   -0.0364    0.0000 O   0  0  0  0  0  0  0  0  0  0  0  0
   -0.5609   -0.4489    0.0000 C   0  0  0  0  0  0  0  0  0  0  0  0
   -0.2254    0.3048    0.0000 O   0  0  0  0  0  0  0  0  0  0  0  0
   -0.5609   -1.2739    0.0000 C   0  0  0  0  0  0  0  0  0  0  0  0
   -1.2754   -1.6864    0.0000 C   0  0  0  0  0  0  0  0  0  0  0  0
   -1.2754   -2.5114    0.0000 C   0  0  0  0  0  0  0  0  0  0  0  0
   -0.5609   -2.9239    0.0000 C   0  0  0  0  0  0  0  0  0  0  0  0
    0.1535   -2.5114    0.0000 C   0  0  0  0  0  0  0  0  0  0  0  0
    0.1535   -1.6864    0.0000 C   0  0  0  0  0  0  0  0  0  0  0  0
    0.8680   -1.2739    0.0000 P   0  0  0  0  0  0  0  0  0  0  0  0
    1.5825   -1.6864    0.0000 C   0  0  0  0  0  0  0  0  0  0  0  0
    2.2969   -1.2739    0.0000 C   0  0  0  0  0  0  0  0  0  0  0  0
    3.0114   -1.6864    0.0000 C   0  0  0  0  0  0  0  0  0  0  0  0
    3.0114   -2.5114    0.0000 C   0  0  0  0  0  0  0  0  0  0  0  0
    2.2969   -2.9239    0.0000 C   0  0  0  0  0  0  0  0  0  0  0  0
    1.5825   -2.5114    0.0000 C   0  0  0  0  0  0  0  0  0  0  0  0
    0.8680   -0.4489    0.0000 C   0  0  0  0  0  0  0  0  0  0  0  0
    0.1535   -0.0364    0.0000 C   0  0  0  0  0  0  0  0  0  0  0  0
    0.1535    0.7886    0.0000 C   0  0  0  0  0  0  0  0  0  0  0  0
    0.8680    1.2011    0.0000 C   0  0  0  0  0  0  0  0  0  0  0  0
    1.5825    0.7886    0.0000 C   0  0  0  0  0  0  0  0  0  0  0  0
    1.5825   -0.0364    0.0000 C   0  0  0  0  0  0  0  0  0  0  0  0
  1  2  2  0
  2  3  1  0
  2  4  1  0
  4  5  2  0
  5  6  1  0
  6  7  2  0
  7  8  1  0
  8  9  2  0
  4  9  1  0
  9 10  1  0
 10 11  1  0
 11 12  2  0
 12 13  1  0
 13 14  2  0
 14 15  1  0
 15 16  2  0
 11 16  1  0
 10 17  1  0
 17 18  2  0
 18 19  1  0
 19 20  2  0
 20 21  1  0
 21 22  2  0
 17 22  1  0
M  END
>  <name>  (923) 
2-(diphenylphosphino)benzoic acid

>  <Outcome>  (923) 
1

>  <SMILES>  (923) 
O=C(O)c1ccccc1P(c1ccccc1)c1ccccc1

$$$$

     RDKit          2D

  9  9  0  0  0  0  0  0  0  0999 V2000
    3.0000    0.0000    0.0000 C   0  0  0  0  0  0  0  0  0  0  0  0
    1.5000    0.0000    0.0000 C   0  0  0  0  0  0  0  0  0  0  0  0
    0.7500   -1.2990    0.0000 C   0  0  0  0  0  0  0  0  0  0  0  0
   -0.7500   -1.2990    0.0000 C   0  0  0  0  0  0  0  0  0  0  0  0
   -1.5000    0.0000    0.0000 C   0  0  0  0  0  0  0  0  0  0  0  0
   -0.7500    1.2990    0.0000 C   0  0  0  0  0  0  0  0  0  0  0  0
    0.7500    1.2990    0.0000 C   0  0  0  0  0  0  0  0  0  0  0  0
   -1.5000    2.5981    0.0000 C   0  0  0  0  0  0  0  0  0  0  0  0
   -1.5000   -2.5981    0.0000 C   0  0  0  0  0  0  0  0  0  0  0  0
  1  2  1  0
  2  3  2  0
  3  4  1  0
  4  5  2  0
  5  6  1  0
  6  7  2  0
  6  8  1  0
  4  9  1  0
  7  2  1  0
M  END
>  <name>  (924) 
1,3,5-trimethylbenzene

>  <Outcome>  (924) 
2

>  <SMILES>  (924) 
Cc1cc(C)cc(C)c1

$$$$

     RDKit          2D

  7  6  0  0  0  0  0  0  0  0999 V2000
    1.7605    1.8374    0.0000 C   0  0  0  0  0  0  0  0  0  0  0  0
    2.4750    1.4249    0.0000 C   0  0  0  0  0  0  0  0  0  0  0  0
    3.1895    1.8374    0.0000 C   0  0  0  0  0  0  0  0  0  0  0  0
    3.9039    1.4249    0.0000 N   0  0  0  0  0  0  0  0  0  0  0  0
    4.6184    1.8374    0.0000 C   0  0  0  0  0  0  0  0  0  0  0  0
    5.3329    1.4249    0.0000 C   0  0  0  0  0  0  0  0  0  0  0  0
    6.0474    1.8374    0.0000 C   0  0  0  0  0  0  0  0  0  0  0  0
  1  2  2  0
  2  3  1  0
  3  4  1  0
  4  5  1  0
  5  6  1  0
  6  7  2  0
M  END
>  <name>  (925) 
bis(prop-2-en-1-yl)amine

>  <Outcome>  (925) 
1

>  <SMILES>  (925) 
C=CCNCC=C

$$$$

     RDKit          2D

 14 15  0  0  0  0  0  0  0  0999 V2000
    1.5000    0.0000    0.0000 C   0  0  0  0  0  0  0  0  0  0  0  0
    0.7500   -1.2990    0.0000 C   0  0  0  0  0  0  0  0  0  0  0  0
   -0.7500   -1.2990    0.0000 C   0  0  0  0  0  0  0  0  0  0  0  0
   -1.5000    0.0000    0.0000 C   0  0  0  0  0  0  0  0  0  0  0  0
   -0.7500    1.2990    0.0000 C   0  0  0  0  0  0  0  0  0  0  0  0
    0.7500    1.2990    0.0000 C   0  0  0  0  0  0  0  0  0  0  0  0
   -3.0000    0.0000    0.0000 N   0  0  0  0  0  0  0  0  0  0  0  0
   -3.7500    1.2990    0.0000 N   0  0  0  0  0  0  0  0  0  0  0  0
   -5.2500    1.2990    0.0000 C   0  0  0  0  0  0  0  0  0  0  0  0
   -6.0000    2.5981    0.0000 C   0  0  0  0  0  0  0  0  0  0  0  0
   -7.5000    2.5981    0.0000 C   0  0  0  0  0  0  0  0  0  0  0  0
   -8.2500    1.2990    0.0000 C   0  0  0  0  0  0  0  0  0  0  0  0
   -7.5000    0.0000    0.0000 C   0  0  0  0  0  0  0  0  0  0  0  0
   -6.0000    0.0000    0.0000 C   0  0  0  0  0  0  0  0  0  0  0  0
  1  2  2  0
  2  3  1  0
  3  4  2  0
  4  5  1  0
  5  6  2  0
  4  7  1  0
  7  8  1  0
  8  9  1  0
  9 10  2  0
 10 11  1  0
 11 12  2  0
 12 13  1  0
 13 14  2  0
  6  1  1  0
 14  9  1  0
M  END
>  <name>  (926) 
1,2-diphenylhydrazine

>  <Outcome>  (926) 
2

>  <SMILES>  (926) 
c1ccc(NNc2ccccc2)cc1

$$$$

     RDKit          2D

 14 13  0  0  0  0  0  0  0  0999 V2000
    4.7586    3.5724    0.0000 N   0  0  0  0  0  0  0  0  0  0  0  0
    5.4730    3.9849    0.0000 C   0  0  0  0  0  0  0  0  0  0  0  0
    6.1875    3.5724    0.0000 C   0  0  0  0  0  0  0  0  0  0  0  0
    6.9020    3.9849    0.0000 C   0  0  0  0  0  0  0  0  0  0  0  0
    7.6164    3.5724    0.0000 O   0  0  0  0  0  0  0  0  0  0  0  0
    8.3309    3.9849    0.0000 C   0  0  0  0  0  0  0  0  0  0  0  0
    9.0454    3.5724    0.0000 C   0  0  0  0  0  0  0  0  0  0  0  0
    9.7599    3.9849    0.0000 C   0  0  0  0  0  0  0  0  0  0  0  0
   10.4743    3.5724    0.0000 C   0  0  0  0  0  0  0  0  0  0  0  0
   11.1888    3.9849    0.0000 O   0  0  0  0  0  0  0  0  0  0  0  0
   11.9033    3.5724    0.0000 C   0  0  0  0  0  0  0  0  0  0  0  0
   12.6177    3.9849    0.0000 C   0  0  0  0  0  0  0  0  0  0  0  0
   13.3322    3.5724    0.0000 C   0  0  0  0  0  0  0  0  0  0  0  0
   14.0467    3.9849    0.0000 N   0  0  0  0  0  0  0  0  0  0  0  0
  1  2  1  0
  2  3  1  0
  3  4  1  0
  4  5  1  0
  5  6  1  0
  6  7  1  0
  7  8  1  0
  8  9  1  0
  9 10  1  0
 10 11  1  0
 11 12  1  0
 12 13  1  0
 13 14  1  0
M  END
>  <name>  (927) 
3,3'-[butane-1,4-diylbis(oxy)]dipropan-1-amine

>  <Outcome>  (927) 
1

>  <SMILES>  (927) 
NCCCOCCCCOCCCN

$$$$

     RDKit          2D

  5  4  0  0  0  0  0  0  0  0999 V2000
    0.0000    0.0000    0.0000 F   0  0  0  0  0  0  0  0  0  0  0  0
    1.2990    0.7500    0.0000 Si  0  0  0  0  0  4  0  0  0  0  0  0
    2.5981    1.5000    0.0000 F   0  0  0  0  0  0  0  0  0  0  0  0
    2.0490   -0.5490    0.0000 F   0  0  0  0  0  0  0  0  0  0  0  0
    0.5490    2.0490    0.0000 F   0  0  0  0  0  0  0  0  0  0  0  0
  1  2  1  0
  2  3  1  0
  2  4  1  0
  2  5  1  0
M  END
>  <name>  (928) 
tetrafluorosilane

>  <Outcome>  (928) 
2

>  <SMILES>  (928) 
F[Si](F)(F)F

$$$$

     RDKit          2D

 13 13  0  0  0  0  0  0  0  0999 V2000
    1.7042    1.6722    0.0000 C   0  0  0  0  0  0  0  0  0  0  0  0
    0.9897    2.0847    0.0000 O   0  0  0  0  0  0  0  0  0  0  0  0
    0.2753    1.6722    0.0000 C   0  0  0  0  0  0  0  0  0  0  0  0
   -0.4392    2.0847    0.0000 C   0  0  0  0  0  0  0  0  0  0  0  0
   -1.1537    1.6722    0.0000 C   0  0  0  0  0  0  0  0  0  0  0  0
   -1.1537    0.8472    0.0000 C   0  0  0  0  0  0  0  0  0  0  0  0
   -1.8682    0.4347    0.0000 O   0  0  0  0  0  0  0  0  0  0  0  0
   -0.4392    0.4347    0.0000 C   0  0  0  0  0  0  0  0  0  0  0  0
    0.2753    0.8472    0.0000 C   0  0  0  0  0  0  0  0  0  0  0  0
   -0.4392   -0.3903    0.0000 C   0  0  0  0  0  0  0  0  0  0  0  0
   -0.4392   -1.2153    0.0000 C   0  0  0  0  0  0  0  0  0  0  0  0
    0.3858   -0.3903    0.0000 C   0  0  0  0  0  0  0  0  0  0  0  0
   -1.2642   -0.3903    0.0000 C   0  0  0  0  0  0  0  0  0  0  0  0
  1  2  1  0
  2  3  1  0
  4  3  2  0
  5  4  1  0
  6  5  2  0
  6  7  1  0
  8  6  1  0
  9  8  2  0
  8 10  1  0
 10 11  1  0
 10 12  1  0
 10 13  1  0
  3  9  1  0
M  END
>  <name>  (929) 
Butylated hydroxyanisole

>  <Outcome>  (929) 
0

>  <SMILES>  (929) 
COc1ccc(O)c(C(C)(C)C)c1

$$$$

     RDKit          2D

 15 14  0  0  0  0  0  0  0  0999 V2000
    5.4730    3.9861    0.0000 C   0  0  0  0  0  0  0  0  0  0  0  0
    6.1875    3.5736    0.0000 C   0  0  0  0  0  0  0  0  0  0  0  0
    6.9020    3.9861    0.0000 C   0  0  0  0  0  0  0  0  0  0  0  0
    6.9020    4.8111    0.0000 O   0  0  0  0  0  0  0  0  0  0  0  0
    7.6164    3.5736    0.0000 O   0  0  0  0  0  0  0  0  0  0  0  0
    8.3309    3.9861    0.0000 C   0  0  0  0  0  0  0  0  0  0  0  0
    9.0454    3.5736    0.0000 C   0  0  0  0  0  0  0  0  0  0  0  0
    9.7599    3.9861    0.0000 O   0  0  0  0  0  0  0  0  0  0  0  0
   10.4743    3.5736    0.0000 C   0  0  0  0  0  0  0  0  0  0  0  0
   10.4743    2.7486    0.0000 O   0  0  0  0  0  0  0  0  0  0  0  0
   11.1888    3.9861    0.0000 N   0  0  0  0  0  0  0  0  0  0  0  0
   11.9033    3.5736    0.0000 C   0  0  0  0  0  0  0  0  0  0  0  0
   12.6177    3.9861    0.0000 C   0  0  0  0  0  0  0  0  0  0  0  0
   13.3322    3.5736    0.0000 C   0  0  0  0  0  0  0  0  0  0  0  0
   14.0467    3.9861    0.0000 C   0  0  0  0  0  0  0  0  0  0  0  0
  1  2  2  0
  2  3  1  0
  3  4  2  0
  3  5  1  0
  5  6  1  0
  6  7  1  0
  7  8  1  0
  8  9  1  0
  9 10  2  0
  9 11  1  0
 11 12  1  0
 12 13  1  0
 13 14  1  0
 14 15  1  0
M  END
>  <name>  (930) 
2-[(butylcarbamoyl)oxy]ethyl prop-2-enoate

>  <Outcome>  (930) 
1

>  <SMILES>  (930) 
C=CC(=O)OCCOC(=O)NCCCC

$$$$

     RDKit          2D

  7  6  0  0  0  0  0  0  0  0999 V2000
    0.0000    0.0000    0.0000 C   0  0  0  0  0  0  0  0  0  0  0  0
   -1.2990    0.7500    0.0000 O   0  0  0  0  0  0  0  0  0  0  0  0
    1.2990    0.7500    0.0000 C   0  0  0  0  0  0  0  0  0  0  0  0
    2.5981    1.5000    0.0000 Cl  0  0  0  0  0  0  0  0  0  0  0  0
    2.0490   -0.5490    0.0000 Cl  0  0  0  0  0  0  0  0  0  0  0  0
    0.5490    2.0490    0.0000 Cl  0  0  0  0  0  0  0  0  0  0  0  0
   -0.0000   -1.5000    0.0000 Cl  0  0  0  0  0  0  0  0  0  0  0  0
  1  2  2  0
  1  3  1  0
  3  4  1  0
  3  5  1  0
  3  6  1  0
  1  7  1  0
M  END
>  <name>  (931) 
2,2,2-trichloroacetyl chloride

>  <Outcome>  (931) 
2

>  <SMILES>  (931) 
O=C(Cl)C(Cl)(Cl)Cl

$$$$

     RDKit          2D

  4  3  0  0  0  0  0  0  0  0999 V2000
    2.0625   -0.7145    0.0000 N   0  0  0  0  0  0  0  0  0  0  0  0
    1.2375   -0.7145    0.0000 C   0  0  0  0  0  0  0  0  0  0  0  0
    0.8250   -0.0000    0.0000 C   0  0  0  0  0  0  0  0  0  0  0  0
    0.0000   -0.0000    0.0000 N   0  0  0  0  0  0  0  0  0  0  0  0
  1  2  1  0
  2  3  1  0
  3  4  1  0
M  END
>  <name>  (932) 
ethane-1,2-diamine

>  <Outcome>  (932) 
1

>  <SMILES>  (932) 
NCCN

$$$$

     RDKit          2D

 18 20  0  0  0  0  0  0  0  0999 V2000
    1.5000    0.0000    0.0000 C   0  0  0  0  0  0  0  0  0  0  0  0
    0.7500   -1.2990    0.0000 C   0  0  0  0  0  0  0  0  0  0  0  0
   -0.7500   -1.2990    0.0000 C   0  0  0  0  0  0  0  0  0  0  0  0
   -1.5000    0.0000    0.0000 C   0  0  0  0  0  0  0  0  0  0  0  0
   -0.7500    1.2990    0.0000 C   0  0  0  0  0  0  0  0  0  0  0  0
    0.7500    1.2990    0.0000 C   0  0  0  0  0  0  0  0  0  0  0  0
    1.5000    2.5981    0.0000 Cl  0  0  0  0  0  0  0  0  0  0  0  0
   -1.5000    2.5981    0.0000 Cl  0  0  0  0  0  0  0  0  0  0  0  0
   -1.5000   -2.5981    0.0000 O   0  0  0  0  0  0  0  0  0  0  0  0
   -0.7500   -3.8971    0.0000 C   0  0  0  0  0  0  0  0  0  0  0  0
   -1.5000   -5.1962    0.0000 C   0  0  0  0  0  0  0  0  0  0  0  0
   -0.7500   -6.4952    0.0000 C   0  0  0  0  0  0  0  0  0  0  0  0
    0.7500   -6.4952    0.0000 C   0  0  0  0  0  0  0  0  0  0  0  0
    1.5000   -5.1962    0.0000 C   0  0  0  0  0  0  0  0  0  0  0  0
    0.7500   -3.8971    0.0000 C   0  0  0  0  0  0  0  0  0  0  0  0
    1.5000   -2.5981    0.0000 O   0  0  0  0  0  0  0  0  0  0  0  0
    1.5000   -7.7942    0.0000 Cl  0  0  0  0  0  0  0  0  0  0  0  0
   -1.5000   -7.7942    0.0000 Cl  0  0  0  0  0  0  0  0  0  0  0  0
  1  2  2  0
  2  3  1  0
  3  4  2  0
  4  5  1  0
  5  6  2  0
  6  7  1  0
  5  8  1  0
  3  9  1  0
  9 10  1  0
 10 11  2  0
 11 12  1  0
 12 13  2  0
 13 14  1  0
 14 15  2  0
 15 16  1  0
 13 17  1  0
 12 18  1  0
  6  1  1  0
 16  2  1  0
 15 10  1  0
M  END
>  <name>  (933) 
2,3,7,8-tetrachlorodibenzo-p-dioxin

>  <Outcome>  (933) 
2

>  <SMILES>  (933) 
Clc1cc2c(cc1Cl)Oc1cc(Cl)c(Cl)cc1O2

$$$$

     RDKit          2D

 17 18  0  0  0  0  0  0  0  0999 V2000
    2.1434   -0.4125    0.0000 N   0  0  0  0  0  0  0  0  0  0  0  0
    2.1434   -1.2375    0.0000 C   0  0  0  0  0  0  0  0  0  0  0  0
    2.8579   -1.6500    0.0000 N   0  0  0  0  0  0  0  0  0  0  0  0
    2.8579   -2.4750    0.0000 C   0  0  0  0  0  0  0  0  0  0  0  0
    3.5724   -2.8875    0.0000 N   0  0  0  0  0  0  0  0  0  0  0  0
    2.1434   -2.8875    0.0000 N   0  0  0  0  0  0  0  0  0  0  0  0
    1.4289   -2.4750    0.0000 C   0  0  0  0  0  0  0  0  0  0  0  0
    0.7145   -2.8875    0.0000 N   0  0  0  0  0  0  0  0  0  0  0  0
    0.0000   -2.4750    0.0000 C   0  0  0  0  0  0  0  0  0  0  0  0
   -0.7145   -2.8875    0.0000 N   0  0  0  0  0  0  0  0  0  0  0  0
   -1.4289   -2.4750    0.0000 C   0  0  0  0  0  0  0  0  0  0  0  0
   -2.1434   -2.8875    0.0000 N   0  0  0  0  0  0  0  0  0  0  0  0
   -1.4289   -1.6500    0.0000 N   0  0  0  0  0  0  0  0  0  0  0  0
   -0.7145   -1.2375    0.0000 C   0  0  0  0  0  0  0  0  0  0  0  0
   -0.7145   -0.4125    0.0000 N   0  0  0  0  0  0  0  0  0  0  0  0
    0.0000   -1.6500    0.0000 N   0  0  0  0  0  0  0  0  0  0  0  0
    1.4289   -1.6500    0.0000 N   0  0  0  0  0  0  0  0  0  0  0  0
  1  2  1  0
  2  3  2  0
  3  4  1  0
  4  5  1  0
  4  6  2  0
  6  7  1  0
  7  8  1  0
  8  9  1  0
  9 10  2  0
 10 11  1  0
 11 12  1  0
 11 13  2  0
 13 14  1  0
 14 15  1  0
 14 16  2  0
  9 16  1  0
  7 17  2  0
  2 17  1  0
M  END
>  <name>  (934) 
N~2~-(4,6-diamino-1,3,5-triazin-2-yl)-1,3,5-triazine-2,4,6-triamine

>  <Outcome>  (934) 
0

>  <SMILES>  (934) 
Nc1nc(N)nc(Nc2nc(N)nc(N)n2)n1

$$$$

     RDKit          2D

 18 21  0  0  0  0  0  0  0  0999 V2000
   -3.0311   -0.7500    0.0000 C   0  0  0  0  0  0  0  0  0  0  0  0
   -1.7321   -1.5000    0.0000 C   0  0  0  0  0  0  0  0  0  0  0  0
   -0.4330   -0.7500    0.0000 C   0  0  0  0  0  0  0  0  0  0  0  0
   -0.4330    0.7500    0.0000 C   0  0  0  0  0  0  0  0  0  0  0  0
    0.8660    0.0000    0.0000 O   0  0  0  0  0  0  0  0  0  0  0  0
   -1.7321    1.5000    0.0000 C   0  0  0  0  0  0  0  0  0  0  0  0
   -3.0311    0.7500    0.0000 C   0  0  0  0  0  0  0  0  0  0  0  0
   -4.3301    1.5000    0.0000 C   0  0  0  0  0  0  0  0  0  0  0  0
   -4.3301    3.0000    0.0000 O   0  0  0  0  0  0  0  0  0  0  0  0
   -5.6292    3.7500    0.0000 C   0  0  0  0  0  0  0  0  0  0  0  0
   -6.9282    3.0000    0.0000 O   0  0  0  0  0  0  0  0  0  0  0  0
   -5.6292    5.2500    0.0000 C   0  0  0  0  0  0  0  0  0  0  0  0
   -4.3301    6.0000    0.0000 C   0  0  0  0  0  0  0  0  0  0  0  0
   -4.3301    7.5000    0.0000 C   0  0  0  0  0  0  0  0  0  0  0  0
   -5.6292    8.2500    0.0000 C   0  0  0  0  0  0  0  0  0  0  0  0
   -6.9282    7.5000    0.0000 C   0  0  0  0  0  0  0  0  0  0  0  0
   -6.9282    6.0000    0.0000 C   0  0  0  0  0  0  0  0  0  0  0  0
   -6.9282    9.0000    0.0000 O   0  0  0  0  0  0  0  0  0  0  0  0
  1  2  1  0
  2  3  1  0
  3  4  1  0
  4  5  1  0
  4  6  1  0
  6  7  1  0
  7  8  1  0
  8  9  1  0
  9 10  1  0
 10 11  2  0
 10 12  1  0
 12 13  1  0
 13 14  1  0
 14 15  1  0
 15 16  1  0
 16 17  1  0
 16 18  1  0
  7  1  1  0
  5  3  1  0
 17 12  1  0
 18 15  1  0
M  END
>  <name>  (935) 
7-oxabicyclo[4.1.0]heptan-3-ylmethyl 7-oxabicyclo[4.1.0]heptane-3-carboxylate

>  <Outcome>  (935) 
2

>  <SMILES>  (935) 
O=C(OCC1CCC2OC2C1)C1CCC2OC2C1

$$$$

     RDKit          2D

  3  1  0  0  0  0  0  0  0  0999 V2000
    0.0000    0.0000    0.0000 N   0  0  0  0  0  0  0  0  0  0  0  0
    1.2990    0.7500    0.0000 N   0  0  0  0  0  0  0  0  0  0  0  0
    0.0000    1.7500    0.0000 O   0  0  0  0  0  0  0  0  0  0  0  0
  1  2  1  0
M  END
>  <name>  (936) 
hydrazine;hydrate

>  <Outcome>  (936) 
2

>  <SMILES>  (936) 
NN.O

$$$$

     RDKit          2D

  7  6  0  0  0  0  0  0  0  0999 V2000
    0.1105   -1.2375    0.0000 C   0  0  0  0  0  0  0  0  0  0  0  0
    0.8250   -0.8250    0.0000 N   0  0  0  0  0  0  0  0  0  0  0  0
    1.5395   -1.2375    0.0000 C   0  0  0  0  0  0  0  0  0  0  0  0
    0.8250    0.0000    0.0000 S   0  0  0  0  0  0  0  0  0  0  0  0
    0.8250    0.8250    0.0000 O   0  0  0  0  0  0  0  0  0  0  0  0
    1.6500    0.0000    0.0000 O   0  0  0  0  0  0  0  0  0  0  0  0
    0.0000    0.0000    0.0000 Cl  0  0  0  0  0  0  0  0  0  0  0  0
  1  2  1  0
  2  3  1  0
  2  4  1  0
  4  5  2  0
  4  6  2  0
  4  7  1  0
M  END
>  <name>  (937) 
dimethylsulfamoyl chloride

>  <Outcome>  (937) 
1

>  <SMILES>  (937) 
CN(C)S(=O)(=O)Cl

$$$$

     RDKit          2D

 25 22  0  0  0  0  0  0  0  0999 V2000
    0.0000    0.0000    0.0000 C   0  0  0  0  0  0  0  0  0  0  0  0
    1.2990    0.7500    0.0000 C   0  0  0  0  0  0  0  0  0  0  0  0
    2.5981   -0.0000    0.0000 C   0  0  0  0  0  0  0  0  0  0  0  0
    3.8971    0.7500    0.0000 C   0  0  0  0  0  0  0  0  0  0  0  0
    5.1962   -0.0000    0.0000 N   0  0  0  0  0  0  0  0  0  0  0  0
    6.4952    0.7500    0.0000 C   0  0  0  0  0  0  0  0  0  0  0  0
    7.7942   -0.0000    0.0000 C   0  0  0  0  0  0  0  0  0  0  0  0
    9.0933    0.7500    0.0000 C   0  0  0  0  0  0  0  0  0  0  0  0
   10.3923   -0.0000    0.0000 C   0  0  0  0  0  0  0  0  0  0  0  0
    5.1962   -1.5000    0.0000 C   0  0  0  0  0  0  0  0  0  0  0  0
    3.8971   -2.2500    0.0000 S   0  0  0  0  0  0  0  0  0  0  0  0
    6.4952   -2.2500    0.0000 S   0  0  0  0  0  1  0  0  0  0  0  0
    0.0000    4.0000    0.0000 C   0  0  0  0  0  0  0  0  0  0  0  0
    1.2990    4.7500    0.0000 C   0  0  0  0  0  0  0  0  0  0  0  0
    2.5981    4.0000    0.0000 C   0  0  0  0  0  0  0  0  0  0  0  0
    3.8971    4.7500    0.0000 C   0  0  0  0  0  0  0  0  0  0  0  0
    5.1962    4.0000    0.0000 N   0  0  0  0  0  0  0  0  0  0  0  0
    6.4952    4.7500    0.0000 C   0  0  0  0  0  0  0  0  0  0  0  0
    7.7942    4.0000    0.0000 C   0  0  0  0  0  0  0  0  0  0  0  0
    9.0933    4.7500    0.0000 C   0  0  0  0  0  0  0  0  0  0  0  0
   10.3923    4.0000    0.0000 C   0  0  0  0  0  0  0  0  0  0  0  0
    5.1962    2.5000    0.0000 C   0  0  0  0  0  0  0  0  0  0  0  0
    3.8971    1.7500    0.0000 S   0  0  0  0  0  0  0  0  0  0  0  0
    6.4952    1.7500    0.0000 S   0  0  0  0  0  1  0  0  0  0  0  0
    0.0000    5.7500    0.0000 Zn  0  0  0  0  0 15  0  0  0  0  0  0
  1  2  1  0
  2  3  1  0
  3  4  1  0
  4  5  1  0
  5  6  1  0
  6  7  1  0
  7  8  1  0
  8  9  1  0
  5 10  1  0
 10 11  2  0
 10 12  1  0
 13 14  1  0
 14 15  1  0
 15 16  1  0
 16 17  1  0
 17 18  1  0
 18 19  1  0
 19 20  1  0
 20 21  1  0
 17 22  1  0
 22 23  2  0
 22 24  1  0
M  CHG  3  12  -1  24  -1  25   2
M  END
>  <name>  (938) 
zinc;N,N-dibutylcarbamodithioate

>  <Outcome>  (938) 
2

>  <SMILES>  (938) 
CCCCN(CCCC)C(=S)[S-].CCCCN(CCCC)C(=S)[S-].[Zn+2]

$$$$

     RDKit          2D

  4  3  0  0  0  0  0  0  0  0999 V2000
    2.0641   -0.7117    0.0000 C   0  0  0  0  0  0  0  0  0  0  0  0
    1.2391   -0.7117    0.0000 C   0  0  0  0  0  0  0  0  0  0  0  0
    0.8266    0.0028    0.0000 O   0  0  0  0  0  0  0  0  0  0  0  0
    0.0016    0.0028    0.0000 N   0  0  0  0  0  0  0  0  0  0  0  0
  1  2  1  0
  2  3  1  0
  3  4  1  0
M  END
>  <name>  (939) 
O-ethylhydroxylamine

>  <Outcome>  (939) 
1

>  <SMILES>  (939) 
CCON

$$$$

     RDKit          2D

  8  7  0  0  0  0  0  0  0  0999 V2000
    1.7605    1.8432    0.0000 C   0  0  0  0  0  0  0  0  0  0  0  0
    2.4750    1.4307    0.0000 C   0  0  0  0  0  0  0  0  0  0  0  0
    3.1895    1.8432    0.0000 C   0  0  0  0  0  0  0  0  0  0  0  0
    3.9039    1.4307    0.0000 C   0  0  0  0  0  0  0  0  0  0  0  0
    4.6184    1.8432    0.0000 O   0  0  0  0  0  0  0  0  0  0  0  0
    5.3329    1.4307    0.0000 C   0  0  0  0  0  0  0  0  0  0  0  0
    6.0474    1.8432    0.0000 C   0  0  0  0  0  0  0  0  0  0  0  0
    5.3329    0.6057    0.0000 O   0  0  0  0  0  0  0  0  0  0  0  0
  1  2  1  0
  2  3  1  0
  3  4  1  0
  4  5  1  0
  5  6  1  0
  6  7  1  0
  6  8  2  0
M  END
>  <name>  (940) 
butyl acetate

>  <Outcome>  (940) 
0

>  <SMILES>  (940) 
CCCCOC(C)=O

$$$$

     RDKit          2D

  9  8  0  0  0  0  0  0  0  0999 V2000
    2.9739   -2.2960    0.0000 C   0  0  0  0  0  0  0  0  0  0  0  0
    2.5614   -1.5815    0.0000 C   0  0  0  0  0  0  0  0  0  0  0  0
    3.2758   -1.1690    0.0000 C   0  0  0  0  0  0  0  0  0  0  0  0
    1.8469   -1.9940    0.0000 C   0  0  0  0  0  0  0  0  0  0  0  0
    2.1489   -0.8671    0.0000 O   0  0  0  0  0  0  0  0  0  0  0  0
    1.3239   -0.8671    0.0000 C   0  0  0  0  0  0  0  0  0  0  0  0
    0.9114   -1.5815    0.0000 O   0  0  0  0  0  0  0  0  0  0  0  0
    0.9114   -0.1526    0.0000 C   0  0  0  0  0  0  0  0  0  0  0  0
    0.0864   -0.1526    0.0000 Cl  0  0  0  0  0  0  0  0  0  0  0  0
  1  2  1  0
  2  3  1  0
  2  4  1  0
  2  5  1  0
  5  6  1  0
  6  7  2  0
  6  8  1  0
  8  9  1  0
M  END
>  <name>  (941) 
tert-butyl 2-chloroacetate

>  <Outcome>  (941) 
1

>  <SMILES>  (941) 
CC(C)(C)OC(=O)CCl

$$$$

     RDKit          2D

  7  6  0  0  0  0  0  0  0  0999 V2000
    2.0625    0.7145    0.0000 C   0  0  0  0  0  0  0  0  0  0  0  0
    1.2375    0.7145    0.0000 C   0  0  0  0  0  0  0  0  0  0  0  0
    0.8250    1.4289    0.0000 O   0  0  0  0  0  0  0  0  0  0  0  0
    0.8250    0.0000    0.0000 C   0  0  0  0  0  0  0  0  0  0  0  0
    0.0000    0.0000    0.0000 C   0  0  0  0  0  0  0  0  0  0  0  0
   -0.4125   -0.7145    0.0000 C   0  0  0  0  0  0  0  0  0  0  0  0
   -0.4125    0.7145    0.0000 O   0  0  0  0  0  0  0  0  0  0  0  0
  1  2  1  0
  2  3  2  0
  4  2  1  0
  4  5  2  3
  5  6  1  0
  5  7  1  0
M  END
>  <name>  (942) 
pentane-2,4-dione

>  <Outcome>  (942) 
1

>  <SMILES>  (942) 
CC(=O)C=C(C)O

$$$$

     RDKit          2D

  9  8  0  0  0  0  0  0  0  0999 V2000
    0.0000    0.0000    0.0000 C   0  0  0  0  0  0  0  0  0  0  0  0
    1.2990    0.7500    0.0000 C   0  0  0  0  0  0  0  0  0  0  0  0
    2.5981   -0.0000    0.0000 C   0  0  0  0  0  0  0  0  0  0  0  0
    3.8971    0.7500    0.0000 C   0  0  0  0  0  0  0  0  0  0  0  0
    5.1962   -0.0000    0.0000 C   0  0  0  0  0  0  0  0  0  0  0  0
    6.4952    0.7500    0.0000 Si  0  0  0  0  0  4  0  0  0  0  0  0
    7.7942    1.5000    0.0000 Cl  0  0  0  0  0  0  0  0  0  0  0  0
    7.2452   -0.5490    0.0000 Cl  0  0  0  0  0  0  0  0  0  0  0  0
    5.7452    2.0490    0.0000 Cl  0  0  0  0  0  0  0  0  0  0  0  0
  1  2  1  0
  2  3  1  0
  3  4  1  0
  4  5  1  0
  5  6  1  0
  6  7  1  0
  6  8  1  0
  6  9  1  0
M  END
>  <name>  (943) 
trichloro(pentyl)silane

>  <Outcome>  (943) 
2

>  <SMILES>  (943) 
CCCCC[Si](Cl)(Cl)Cl

$$$$

     RDKit          2D

  9  8  0  0  0  0  0  0  0  0999 V2000
    0.0000    0.0000    0.0000 C   0  0  0  0  0  0  0  0  0  0  0  0
    1.2990    0.7500    0.0000 C   0  0  0  0  0  0  0  0  0  0  0  0
    2.5981   -0.0000    0.0000 C   0  0  0  0  0  0  0  0  0  0  0  0
    3.8971    0.7500    0.0000 C   0  0  0  0  0  0  0  0  0  0  0  0
    5.1962   -0.0000    0.0000 O   0  0  0  0  0  0  0  0  0  0  0  0
    6.4952    0.7500    0.0000 C   0  0  0  0  0  0  0  0  0  0  0  0
    6.4952    2.2500    0.0000 O   0  0  0  0  0  0  0  0  0  0  0  0
    7.7942   -0.0000    0.0000 C   0  0  0  0  0  0  0  0  0  0  0  0
    9.0933    0.7500    0.0000 O   0  0  0  0  0  0  0  0  0  0  0  0
  1  2  1  0
  2  3  1  0
  3  4  1  0
  4  5  1  0
  5  6  1  0
  6  7  2  0
  6  8  1  0
  8  9  1  0
M  END
>  <name>  (944) 
butyl 2-hydroxyacetate

>  <Outcome>  (944) 
2

>  <SMILES>  (944) 
CCCCOC(=O)CO

$$$$

     RDKit          2D

 12 11  0  0  0  0  0  0  0  0999 V2000
    1.9652    0.7944    0.0000 C   0  0  0  0  0  0  0  0  0  0  0  0
    1.5527    0.0800    0.0000 C   0  0  0  0  0  0  0  0  0  0  0  0
    0.7277    0.0800    0.0000 O   0  0  0  0  0  0  0  0  0  0  0  0
    0.3152   -0.6345    0.0000 C   0  0  0  0  0  0  0  0  0  0  0  0
   -0.5098   -0.6345    0.0000 C   0  0  0  0  0  0  0  0  0  0  0  0
   -0.9223    0.0800    0.0000 C   0  0  0  0  0  0  0  0  0  0  0  0
   -1.3348    0.7944    0.0000 N   0  0  0  0  0  0  0  0  0  0  0  0
   -0.9223   -1.3490    0.0000 C   0  0  0  0  0  0  0  0  0  0  0  0
   -1.7473   -1.3490    0.0000 O   0  0  0  0  0  0  0  0  0  0  0  0
   -0.5098   -2.0634    0.0000 O   0  0  0  0  0  0  0  0  0  0  0  0
   -0.9223   -2.7779    0.0000 C   0  0  0  0  0  0  0  0  0  0  0  0
   -0.5098   -3.4924    0.0000 C   0  0  0  0  0  0  0  0  0  0  0  0
  1  2  1  0
  2  3  1  0
  4  3  1  0
  4  5  2  3
  5  6  1  0
  6  7  3  0
  5  8  1  0
  8  9  2  0
  8 10  1  0
 10 11  1  0
 11 12  1  0
M  END
>  <name>  (945) 
2-Propenoic acid, 2-cyano-3-ethoxy-, ethyl ester

>  <Outcome>  (945) 
0

>  <SMILES>  (945) 
CCOC=C(C#N)C(=O)OCC

$$$$

     RDKit          2D

 35 38  0  0  0  0  0  0  0  0999 V2000
    3.4827   -3.2380    0.0000 O   0  0  0  0  0  0  0  0  0  0  0  0
    3.6056   -4.0538    0.0000 C   0  0  0  0  0  0  0  0  0  0  0  0
    4.3940   -4.2969    0.0000 C   0  0  0  0  0  0  0  0  0  0  0  0
    4.6954   -5.0649    0.0000 C   0  0  0  0  0  0  0  0  0  0  0  0
    4.2829   -5.7794    0.0000 C   0  0  0  0  0  0  0  0  0  0  0  0
    3.4671   -5.9023    0.0000 C   0  0  0  0  0  0  0  0  0  0  0  0
    2.8623   -5.3412    0.0000 C   0  0  0  0  0  0  0  0  0  0  0  0
    2.9240   -4.5185    0.0000 N   0  0  0  0  0  0  0  0  0  0  0  0
    2.2095   -4.1060    0.0000 C   0  0  0  0  0  0  0  0  0  0  0  0
    2.2095   -3.2810    0.0000 O   0  0  0  0  0  0  0  0  0  0  0  0
    1.4950   -4.5185    0.0000 N   0  0  0  0  0  0  0  0  0  0  0  0
    1.4950   -5.3435    0.0000 C   0  0  0  0  0  0  0  0  0  0  0  0
    2.2095   -5.7560    0.0000 C   0  0  0  0  0  0  0  0  0  0  0  0
    2.2095   -6.5810    0.0000 C   0  0  0  0  0  0  0  0  0  0  0  0
    1.4950   -6.9935    0.0000 C   0  0  0  0  0  0  0  0  0  0  0  0
    1.4950   -7.8185    0.0000 C   0  0  0  0  0  0  0  0  0  0  0  0
    0.7806   -8.2310    0.0000 C   0  0  0  0  0  0  0  0  0  0  0  0
    0.7806   -9.0560    0.0000 C   0  0  0  0  0  0  0  0  0  0  0  0
    0.0661   -9.4685    0.0000 C   0  0  0  0  0  0  0  0  0  0  0  0
   -0.6484   -9.0560    0.0000 C   0  0  0  0  0  0  0  0  0  0  0  0
   -1.3628   -9.4685    0.0000 N   0  0  0  0  0  0  0  0  0  0  0  0
   -1.3628  -10.2935    0.0000 C   0  0  0  0  0  0  0  0  0  0  0  0
   -0.6484  -10.7060    0.0000 O   0  0  0  0  0  0  0  0  0  0  0  0
   -2.0773  -10.7060    0.0000 N   0  0  0  0  0  0  0  0  0  0  0  0
   -2.0157  -11.5287    0.0000 C   0  0  0  0  0  0  0  0  0  0  0  0
   -2.6204  -12.0898    0.0000 C   0  0  0  0  0  0  0  0  0  0  0  0
   -3.4362  -11.9669    0.0000 C   0  0  0  0  0  0  0  0  0  0  0  0
   -3.8487  -11.2524    0.0000 C   0  0  0  0  0  0  0  0  0  0  0  0
   -3.5473  -10.4844    0.0000 C   0  0  0  0  0  0  0  0  0  0  0  0
   -2.7590  -10.2413    0.0000 C   0  0  0  0  0  0  0  0  0  0  0  0
   -2.6360   -9.4255    0.0000 O   0  0  0  0  0  0  0  0  0  0  0  0
   -0.6484   -8.2310    0.0000 C   0  0  0  0  0  0  0  0  0  0  0  0
    0.0661   -7.8185    0.0000 C   0  0  0  0  0  0  0  0  0  0  0  0
    0.7806   -6.5810    0.0000 C   0  0  0  0  0  0  0  0  0  0  0  0
    0.7806   -5.7560    0.0000 C   0  0  0  0  0  0  0  0  0  0  0  0
  1  2  2  0
  2  3  1  0
  3  4  1  0
  4  5  1  0
  5  6  1  0
  6  7  1  0
  7  8  1  0
  2  8  1  0
  8  9  1  0
  9 10  2  0
  9 11  1  0
 11 12  1  0
 12 13  2  0
 13 14  1  0
 14 15  2  0
 15 16  1  0
 16 17  1  0
 17 18  2  0
 18 19  1  0
 19 20  2  0
 20 21  1  0
 21 22  1  0
 22 23  2  0
 22 24  1  0
 24 25  1  0
 25 26  1  0
 26 27  1  0
 27 28  1  0
 28 29  1  0
 29 30  1  0
 24 30  1  0
 30 31  2  0
 20 32  1  0
 32 33  2  0
 17 33  1  0
 15 34  1  0
 34 35  2  0
 12 35  1  0
M  END
>  <name>  (946) 
2-oxo-N-[4-({4-[(2-oxoazepane-1-carbonyl)amino]phenyl}methyl)phenyl]azepane-1-carboxamide

>  <Outcome>  (946) 
0

>  <SMILES>  (946) 
O=C1CCCCCN1C(=O)Nc1ccc(Cc2ccc(NC(=O)N3CCCCCC3=O)cc2)cc1

$$$$

     RDKit          2D

  7  6  0  0  0  0  0  0  0  0999 V2000
    1.7605    1.8432    0.0000 C   0  0  0  0  0  0  0  0  0  0  0  0
    2.4750    1.4307    0.0000 C   0  0  0  0  0  0  0  0  0  0  0  0
    3.1895    1.8432    0.0000 O   0  0  0  0  0  0  0  0  0  0  0  0
    3.9039    1.4307    0.0000 C   0  0  0  0  0  0  0  0  0  0  0  0
    4.6184    1.8432    0.0000 C   0  0  0  0  0  0  0  0  0  0  0  0
    5.3329    1.4307    0.0000 C   0  0  0  0  0  0  0  0  0  0  0  0
    6.0474    1.8432    0.0000 C   0  0  0  0  0  0  0  0  0  0  0  0
  1  2  2  0
  2  3  1  0
  3  4  1  0
  4  5  1  0
  5  6  1  0
  6  7  1  0
M  END
>  <name>  (947) 
1-(ethenyloxy)butane

>  <Outcome>  (947) 
0

>  <SMILES>  (947) 
C=COCCCC

$$$$

     RDKit          2D

 11 11  0  0  0  0  0  0  0  0999 V2000
    0.7145    2.0625    0.0000 Cl  0  0  0  0  0  0  0  0  0  0  0  0
    0.7145    1.2375    0.0000 C   0  0  0  0  0  0  0  0  0  0  0  0
    1.4289    0.8250    0.0000 C   0  0  0  0  0  0  0  0  0  0  0  0
    1.4289   -0.0000    0.0000 C   0  0  0  0  0  0  0  0  0  0  0  0
    0.7145   -0.4125    0.0000 C   0  0  0  0  0  0  0  0  0  0  0  0
    0.7145   -1.2375    0.0000 C   0  0  0  0  0  0  0  0  0  0  0  0
    0.7145   -2.0625    0.0000 Cl  0  0  0  0  0  0  0  0  0  0  0  0
   -0.1105   -1.2375    0.0000 Cl  0  0  0  0  0  0  0  0  0  0  0  0
    1.5395   -1.2375    0.0000 Cl  0  0  0  0  0  0  0  0  0  0  0  0
    0.0000    0.0000    0.0000 C   0  0  0  0  0  0  0  0  0  0  0  0
    0.0000    0.8250    0.0000 C   0  0  0  0  0  0  0  0  0  0  0  0
  1  2  1  0
  2  3  2  0
  3  4  1  0
  4  5  2  0
  5  6  1  0
  6  7  1  0
  6  8  1  0
  6  9  1  0
  5 10  1  0
 10 11  2  0
  2 11  1  0
M  END
>  <name>  (948) 
1-chloro-4-(trichloromethyl)benzene

>  <Outcome>  (948) 
1

>  <SMILES>  (948) 
Clc1ccc(C(Cl)(Cl)Cl)cc1

$$$$

     RDKit          2D

  8  7  0  0  0  0  0  0  0  0999 V2000
    1.2297    2.3571    0.0000 C   0  0  0  0  0  0  0  0  0  0  0  0
    0.8172    1.6426    0.0000 C   0  0  0  0  0  0  0  0  0  0  0  0
   -0.0078    1.6426    0.0000 O   0  0  0  0  0  0  0  0  0  0  0  0
    1.2297    0.9281    0.0000 C   0  0  0  0  0  0  0  0  0  0  0  0
    2.0547    0.9281    0.0000 N   0  0  0  0  0  0  0  0  0  0  0  0
    0.8172    0.2137    0.0000 C   0  0  0  0  0  0  0  0  0  0  0  0
    1.2297   -0.5008    0.0000 O   0  0  0  0  0  0  0  0  0  0  0  0
   -0.0078    0.2137    0.0000 O   0  0  0  0  0  0  0  0  0  0  0  0
  1  2  1  0
  2  3  1  0
  2  4  1  0
  4  5  1  0
  4  6  1  0
  6  7  2  0
  6  8  1  0
M  END
>  <name>  (949) 
(2S)-2-amino-3-hydroxybutanoic acid

>  <Outcome>  (949) 
0

>  <SMILES>  (949) 
CC(O)C(N)C(=O)O

$$$$

     RDKit          2D

  5  4  0  0  0  0  0  0  0  0999 V2000
    0.8250    1.4289    0.0000 C   0  0  0  0  0  0  0  0  0  0  0  0
    1.2375    0.7145    0.0000 N   0  0  0  0  0  0  0  0  0  0  0  0
    0.8250   -0.0000    0.0000 C   0  0  0  0  0  0  0  0  0  0  0  0
    1.2375   -0.7145    0.0000 S   0  0  0  0  0  0  0  0  0  0  0  0
   -0.0000   -0.0000    0.0000 S   0  0  0  0  0  0  0  0  0  0  0  0
  1  2  1  0
  2  3  1  0
  3  4  2  0
  3  5  1  0
M  END
>  <name>  (950) 
sodium (methylcarbamothioyl)sulfanide

>  <Outcome>  (950) 
0

>  <SMILES>  (950) 
CNC(=S)S

$$$$

     RDKit          2D

  5  4  0  0  0  0  0  0  0  0999 V2000
    0.8250    1.4289    0.0000 C   0  0  0  0  0  0  0  0  0  0  0  0
    1.2375    0.7145    0.0000 N   0  0  0  0  0  0  0  0  0  0  0  0
    0.8250   -0.0000    0.0000 C   0  0  0  0  0  0  0  0  0  0  0  0
    1.2375   -0.7145    0.0000 N   0  0  0  0  0  0  0  0  0  0  0  0
   -0.0000   -0.0000    0.0000 O   0  0  0  0  0  0  0  0  0  0  0  0
  1  2  1  0
  2  3  1  0
  3  4  1  0
  3  5  2  0
M  END
>  <name>  (951) 
1-methylurea

>  <Outcome>  (951) 
0

>  <SMILES>  (951) 
CNC(N)=O

$$$$

     RDKit          2D

  7  6  0  0  0  0  0  0  0  0999 V2000
   -0.1914    0.7173    0.0000 O   0  0  0  0  0  0  0  0  0  0  0  0
    0.5230    1.1298    0.0000 C   0  0  0  0  0  0  0  0  0  0  0  0
    0.5230    1.9548    0.0000 Cl  0  0  0  0  0  0  0  0  0  0  0  0
    1.2375    0.7173    0.0000 C   0  0  0  0  0  0  0  0  0  0  0  0
    1.9520    1.1298    0.0000 C   0  0  0  0  0  0  0  0  0  0  0  0
    2.6664    0.7173    0.0000 C   0  0  0  0  0  0  0  0  0  0  0  0
    3.3809    1.1298    0.0000 Cl  0  0  0  0  0  0  0  0  0  0  0  0
  1  2  2  0
  2  3  1  0
  2  4  1  0
  4  5  1  0
  5  6  1  0
  6  7  1  0
M  END
>  <name>  (952) 
4-chlorobutanoyl chloride

>  <Outcome>  (952) 
1

>  <SMILES>  (952) 
O=C(Cl)CCCCl

$$$$

     RDKit          2D

 13  8  0  0  0  0  0  0  0  0999 V2000
    0.0000    0.0000    0.0000 N   0  0  0  0  0  4  0  0  0  0  0  0
    1.0000    0.0000    0.0000 N   0  0  0  0  0  4  0  0  0  0  0  0
    0.0000    1.5490    0.0000 O   0  0  0  0  0  1  0  0  0  0  0  0
    1.2990    2.2990    0.0000 S   0  0  0  0  0  0  0  0  0  0  0  0
    2.0490    1.0000    0.0000 O   0  0  0  0  0  0  0  0  0  0  0  0
    0.5490    3.5981    0.0000 O   0  0  0  0  0  0  0  0  0  0  0  0
    2.5981    3.0490    0.0000 O   0  0  0  0  0  1  0  0  0  0  0  0
    2.0000    0.0000    0.0000 O   0  0  0  0  0  1  0  0  0  0  0  0
    3.2990    0.7500    0.0000 S   0  0  0  0  0  0  0  0  0  0  0  0
    4.0490   -0.5490    0.0000 O   0  0  0  0  0  0  0  0  0  0  0  0
    2.5490    2.0490    0.0000 O   0  0  0  0  0  0  0  0  0  0  0  0
    4.5981    1.5000    0.0000 O   0  0  0  0  0  1  0  0  0  0  0  0
    0.0000    4.5981    0.0000 Ni  0  0  0  0  0 15  0  0  0  0  0  0
  3  4  1  0
  4  5  2  0
  4  6  2  0
  4  7  1  0
  8  9  1  0
  9 10  2  0
  9 11  2  0
  9 12  1  0
M  CHG  7   1   1   2   1   3  -1   7  -1   8  -1  12  -1  13   2
M  END
>  <name>  (953) 
diazanium;nickel(2+);disulfate

>  <Outcome>  (953) 
2

>  <SMILES>  (953) 
O=S(=O)([O-])[O-].O=S(=O)([O-])[O-].[NH4+].[NH4+].[Ni+2]

$$$$

     RDKit          2D

 10 10  0  0  0  0  0  0  0  0999 V2000
    0.7145    2.0625    0.0000 C   0  0  0  0  0  0  0  0  0  0  0  0
    0.7145    1.2375    0.0000 C   0  0  0  0  0  0  0  0  0  0  0  0
    1.4289    0.8250    0.0000 C   0  0  0  0  0  0  0  0  0  0  0  0
    1.4289   -0.0000    0.0000 C   0  0  0  0  0  0  0  0  0  0  0  0
    0.7145   -0.4125    0.0000 C   0  0  0  0  0  0  0  0  0  0  0  0
    0.7145   -1.2375    0.0000 N   0  0  0  0  0  0  0  0  0  0  0  0
    1.4289   -1.6500    0.0000 O   0  0  0  0  0  0  0  0  0  0  0  0
    0.0000   -1.6500    0.0000 O   0  0  0  0  0  0  0  0  0  0  0  0
    0.0000    0.0000    0.0000 C   0  0  0  0  0  0  0  0  0  0  0  0
    0.0000    0.8250    0.0000 C   0  0  0  0  0  0  0  0  0  0  0  0
  1  2  1  0
  2  3  2  0
  3  4  1  0
  4  5  2  0
  5  6  1  0
  6  7  1  0
  6  8  2  0
  5  9  1  0
  9 10  2  0
  2 10  1  0
M  CHG  2   6   1   7  -1
M  END
>  <name>  (954) 
1-methyl-4-nitrobenzene

>  <Outcome>  (954) 
1

>  <SMILES>  (954) 
Cc1ccc([N+](=O)[O-])cc1

$$$$

     RDKit          2D

  9  8  0  0  0  0  0  0  0  0999 V2000
   -0.6161   -2.3069    0.0000 C   0  0  0  0  0  0  0  0  0  0  0  0
    0.0984   -1.8944    0.0000 C   0  0  0  0  0  0  0  0  0  0  0  0
    0.0984   -1.0694    0.0000 C   0  0  0  0  0  0  0  0  0  0  0  0
   -0.6161   -0.6569    0.0000 O   0  0  0  0  0  0  0  0  0  0  0  0
    0.8129   -0.6569    0.0000 O   0  0  0  0  0  0  0  0  0  0  0  0
    0.8129    0.1681    0.0000 C   0  0  0  0  0  0  0  0  0  0  0  0
    0.8129    0.9931    0.0000 C   0  0  0  0  0  0  0  0  0  0  0  0
    1.6379    0.1681    0.0000 C   0  0  0  0  0  0  0  0  0  0  0  0
   -0.0121    0.1681    0.0000 C   0  0  0  0  0  0  0  0  0  0  0  0
  1  2  2  0
  2  3  1  0
  3  4  2  0
  3  5  1  0
  5  6  1  0
  6  7  1  0
  6  8  1  0
  6  9  1  0
M  END
>  <name>  (955) 
tert-butyl prop-2-enoate

>  <Outcome>  (955) 
1

>  <SMILES>  (955) 
C=CC(=O)OC(C)(C)C

$$$$

     RDKit          2D

  6  5  0  0  0  0  0  0  0  0999 V2000
    2.4550   -1.4060    0.0000 C   0  0  0  0  0  0  0  0  0  0  0  0
    2.0425   -0.6915    0.0000 N   0  0  0  0  0  0  0  0  0  0  0  0
    2.4550    0.0229    0.0000 C   0  0  0  0  0  0  0  0  0  0  0  0
    1.2175   -0.6915    0.0000 C   0  0  0  0  0  0  0  0  0  0  0  0
    0.8050    0.0229    0.0000 C   0  0  0  0  0  0  0  0  0  0  0  0
   -0.0200    0.0229    0.0000 O   0  0  0  0  0  0  0  0  0  0  0  0
  1  2  1  0
  2  3  1  0
  2  4  1  0
  4  5  1  0
  5  6  1  0
M  END
>  <name>  (956) 
2-(dimethylamino)ethan-1-ol

>  <Outcome>  (956) 
1

>  <SMILES>  (956) 
CN(C)CCO

$$$$

     RDKit          2D

 16 16  0  0  0  0  0  0  0  0999 V2000
    0.7500   -3.8971    0.0000 C   0  0  0  0  0  0  0  0  0  0  0  0
    1.5000   -2.5981    0.0000 C   0  0  0  0  0  0  0  0  0  0  0  0
    0.7500   -1.2990    0.0000 N   0  0  0  0  0  4  0  0  0  0  0  0
    1.5000    0.0000    0.0000 C   0  0  0  0  0  0  0  0  0  0  0  0
    0.7500    1.2990    0.0000 C   0  0  0  0  0  0  0  0  0  0  0  0
   -0.7500    1.2990    0.0000 C   0  0  0  0  0  0  0  0  0  0  0  0
   -1.5000    0.0000    0.0000 C   0  0  0  0  0  0  0  0  0  0  0  0
   -0.7500   -1.2990    0.0000 C   0  0  0  0  0  0  0  0  0  0  0  0
   -1.5000   -2.5981    0.0000 C   0  0  0  0  0  0  0  0  0  0  0  0
   -3.0000   -2.5981    0.0000 C   0  0  0  0  0  0  0  0  0  0  0  0
   -3.7500   -3.8971    0.0000 C   0  0  0  0  0  0  0  0  0  0  0  0
   -3.0000   -5.1962    0.0000 C   0  0  0  0  0  0  0  0  0  0  0  0
   -1.5000   -5.1962    0.0000 C   0  0  0  0  0  0  0  0  0  0  0  0
   -0.7500   -3.8971    0.0000 N   0  0  0  0  0  4  0  0  0  0  0  0
    2.5000    0.0000    0.0000 Cl  0  0  0  0  0 15  0  0  0  0  0  0
    3.5000    0.0000    0.0000 Cl  0  0  0  0  0 15  0  0  0  0  0  0
  1  2  1  0
  2  3  1  0
  3  4  2  0
  4  5  1  0
  5  6  2  0
  6  7  1  0
  7  8  2  0
  8  9  1  0
  9 10  2  0
 10 11  1  0
 11 12  2  0
 12 13  1  0
 13 14  2  0
 14  1  1  0
  8  3  1  0
 14  9  1  0
M  CHG  4   3   1  14   1  15  -1  16  -1
M  END
>  <name>  (957) 
7,10-diazoniatricyclo[8.4.0.02,7]tetradeca-1(14),2,4,6,10,12-hexaene;dichloride

>  <Outcome>  (957) 
2

>  <SMILES>  (957) 
[Cl-].[Cl-].c1cc[n+]2c(c1)-c1cccc[n+]1CC2

$$$$

     RDKit          2D

 10  9  0  0  0  0  0  0  0  0999 V2000
    0.0000    0.3038    0.0000 C   0  0  0  0  0  0  0  0  0  0  0  0
    0.7145   -0.1087    0.0000 C   0  0  0  0  0  0  0  0  0  0  0  0
    1.4289    0.3038    0.0000 C   0  0  0  0  0  0  0  0  0  0  0  0
    2.1434   -0.1087    0.0000 C   0  0  0  0  0  0  0  0  0  0  0  0
    2.8579    0.3038    0.0000 C   0  0  0  0  0  0  0  0  0  0  0  0
    3.5724   -0.1087    0.0000 O   0  0  0  0  0  0  0  0  0  0  0  0
    4.2868    0.3038    0.0000 C   0  0  0  0  0  0  0  0  0  0  0  0
    4.2868    1.1288    0.0000 O   0  0  0  0  0  0  0  0  0  0  0  0
    5.0013   -0.1087    0.0000 C   0  0  0  0  0  0  0  0  0  0  0  0
    5.7158    0.3038    0.0000 C   0  0  0  0  0  0  0  0  0  0  0  0
  1  2  1  0
  2  3  1  0
  3  4  1  0
  4  5  1  0
  5  6  1  0
  6  7  1  0
  7  8  2  0
  7  9  1  0
  9 10  1  0
M  END
>  <name>  (958) 
Pentyl propionate

>  <Outcome>  (958) 
0

>  <SMILES>  (958) 
CCCCCOC(=O)CC

$$$$

     RDKit          2D

  6  5  0  0  0  0  0  0  0  0999 V2000
    0.0000    0.0000    0.0000 C   0  0  0  0  0  0  0  0  0  0  0  0
    1.2990    0.7500    0.0000 C   0  0  0  0  0  0  0  0  0  0  0  0
    2.5981   -0.0000    0.0000 Si  0  0  0  0  0  4  0  0  0  0  0  0
    3.8971   -0.7500    0.0000 Cl  0  0  0  0  0  0  0  0  0  0  0  0
    3.3481    1.2990    0.0000 Cl  0  0  0  0  0  0  0  0  0  0  0  0
    1.8481   -1.2990    0.0000 Cl  0  0  0  0  0  0  0  0  0  0  0  0
  1  2  2  0
  2  3  1  0
  3  4  1  0
  3  5  1  0
  3  6  1  0
M  END
>  <name>  (959) 
trichloro(ethenyl)silane

>  <Outcome>  (959) 
2

>  <SMILES>  (959) 
C=C[Si](Cl)(Cl)Cl

$$$$

     RDKit          2D

  5  4  0  0  0  0  0  0  0  0999 V2000
    2.4738   -1.4311    0.0000 C   0  0  0  0  0  0  0  0  0  0  0  0
    2.0613   -0.7167    0.0000 C   0  0  0  0  0  0  0  0  0  0  0  0
    1.2363   -0.7167    0.0000 C   0  0  0  0  0  0  0  0  0  0  0  0
    0.8238   -0.0022    0.0000 C   0  0  0  0  0  0  0  0  0  0  0  0
   -0.0012   -0.0022    0.0000 Br  0  0  0  0  0  0  0  0  0  0  0  0
  1  2  1  0
  2  3  1  0
  3  4  1  0
  4  5  1  0
M  END
>  <name>  (960) 
1-bromobutane

>  <Outcome>  (960) 
0

>  <SMILES>  (960) 
CCCCBr

$$$$

     RDKit          2D

  7  7  0  0  0  0  0  0  0  0999 V2000
    3.0000    0.0000    0.0000 C   0  0  0  0  0  0  0  0  0  0  0  0
    1.5000    0.0000    0.0000 N   0  0  0  0  0  0  0  0  0  0  0  0
    0.7500   -1.2990    0.0000 C   0  0  0  0  0  0  0  0  0  0  0  0
   -0.7500   -1.2990    0.0000 C   0  0  0  0  0  0  0  0  0  0  0  0
   -1.5000    0.0000    0.0000 O   0  0  0  0  0  0  0  0  0  0  0  0
   -0.7500    1.2990    0.0000 C   0  0  0  0  0  0  0  0  0  0  0  0
    0.7500    1.2990    0.0000 C   0  0  0  0  0  0  0  0  0  0  0  0
  1  2  1  0
  2  3  1  0
  3  4  1  0
  4  5  1  0
  5  6  1  0
  6  7  1  0
  7  2  1  0
M  END
>  <name>  (961) 
4-methylmorpholine

>  <Outcome>  (961) 
2

>  <SMILES>  (961) 
CN1CCOCC1

$$$$

     RDKit          2D

 12 12  0  0  0  0  0  0  0  0999 V2000
    1.5000    0.0000    0.0000 C   0  0  0  0  0  0  0  0  0  0  0  0
    0.7500   -1.2990    0.0000 C   0  0  0  0  0  0  0  0  0  0  0  0
   -0.7500   -1.2990    0.0000 C   0  0  0  0  0  0  0  0  0  0  0  0
   -1.5000    0.0000    0.0000 C   0  0  0  0  0  0  0  0  0  0  0  0
   -0.7500    1.2990    0.0000 C   0  0  0  0  0  0  0  0  0  0  0  0
    0.7500    1.2990    0.0000 C   0  0  0  0  0  0  0  0  0  0  0  0
    1.5000    2.5981    0.0000 Cl  0  0  0  0  0  0  0  0  0  0  0  0
   -1.5000    2.5981    0.0000 Cl  0  0  0  0  0  0  0  0  0  0  0  0
   -3.0000    0.0000    0.0000 Cl  0  0  0  0  0  0  0  0  0  0  0  0
   -1.5000   -2.5981    0.0000 Cl  0  0  0  0  0  0  0  0  0  0  0  0
    1.5000   -2.5981    0.0000 Cl  0  0  0  0  0  0  0  0  0  0  0  0
    3.0000    0.0000    0.0000 O   0  0  0  0  0  0  0  0  0  0  0  0
  1  2  2  0
  2  3  1  0
  3  4  2  0
  4  5  1  0
  5  6  2  0
  6  7  1  0
  5  8  1  0
  4  9  1  0
  3 10  1  0
  2 11  1  0
  1 12  1  0
  6  1  1  0
M  END
>  <name>  (962) 
2,3,4,5,6-pentachlorophenol

>  <Outcome>  (962) 
2

>  <SMILES>  (962) 
Oc1c(Cl)c(Cl)c(Cl)c(Cl)c1Cl

$$$$

     RDKit          2D

 20 19  0  0  0  0  0  0  0  0999 V2000
    5.1197    1.0622    0.0000 O   0  0  0  0  0  0  0  0  0  0  0  0
    5.9298    1.2181    0.0000 C   0  0  0  0  0  0  0  0  0  0  0  0
    6.1999    1.9977    0.0000 O   0  0  0  0  0  0  0  0  0  0  0  0
    6.4699    0.5945    0.0000 C   0  0  0  0  0  0  0  0  0  0  0  0
    6.1999   -0.1851    0.0000 N   0  0  0  0  0  0  0  0  0  0  0  0
    5.3898   -0.3410    0.0000 C   0  0  0  0  0  0  0  0  0  0  0  0
    5.1197   -1.1205    0.0000 C   0  0  0  0  0  0  0  0  0  0  0  0
    4.3096   -1.2764    0.0000 N   0  0  0  0  0  0  0  0  0  0  0  0
    4.0395   -2.0560    0.0000 C   0  0  0  0  0  0  0  0  0  0  0  0
    4.5796   -2.6796    0.0000 C   0  0  0  0  0  0  0  0  0  0  0  0
    5.3898   -2.5237    0.0000 O   0  0  0  0  0  0  0  0  0  0  0  0
    4.3096   -3.4592    0.0000 O   0  0  0  0  0  0  0  0  0  0  0  0
    3.7695   -0.6528    0.0000 C   0  0  0  0  0  0  0  0  0  0  0  0
    2.9594   -0.8087    0.0000 C   0  0  0  0  0  0  0  0  0  0  0  0
    2.4193   -0.1851    0.0000 O   0  0  0  0  0  0  0  0  0  0  0  0
    2.6893   -1.5883    0.0000 O   0  0  0  0  0  0  0  0  0  0  0  0
    6.7400   -0.8087    0.0000 C   0  0  0  0  0  0  0  0  0  0  0  0
    7.5501   -0.6528    0.0000 C   0  0  0  0  0  0  0  0  0  0  0  0
    7.8202    0.1268    0.0000 O   0  0  0  0  0  0  0  0  0  0  0  0
    8.0902   -1.2764    0.0000 O   0  0  0  0  0  0  0  0  0  0  0  0
  1  2  2  0
  2  3  1  0
  2  4  1  0
  4  5  1  0
  5  6  1  0
  6  7  1  0
  7  8  1  0
  8  9  1  0
  9 10  1  0
 10 11  2  0
 10 12  1  0
  8 13  1  0
 13 14  1  0
 14 15  2  0
 14 16  1  0
  5 17  1  0
 17 18  1  0
 18 19  2  0
 18 20  1  0
M  END
>  <name>  (963) 
manganese(2+) ion disodium 2-({2-[bis(carboxylatomethyl)amino]ethyl}(carboxylatomethyl)amino)acetate

>  <Outcome>  (963) 
0

>  <SMILES>  (963) 
O=C(O)CN(CCN(CC(=O)O)CC(=O)O)CC(=O)O

$$$$

     RDKit          2D

 10 10  0  0  0  0  0  0  0  0999 V2000
    0.3741   -1.1256    0.0000 C   0  0  0  0  0  0  0  0  0  0  0  0
    0.3741   -0.3006    0.0000 C   0  0  0  0  0  0  0  0  0  0  0  0
    1.0886    0.1119    0.0000 C   0  0  0  0  0  0  0  0  0  0  0  0
    1.0886    0.9369    0.0000 C   0  0  0  0  0  0  0  0  0  0  0  0
    1.8030    1.3494    0.0000 O   0  0  0  0  0  0  0  0  0  0  0  0
    0.3741    1.3494    0.0000 C   0  0  0  0  0  0  0  0  0  0  0  0
   -0.3404    0.9369    0.0000 C   0  0  0  0  0  0  0  0  0  0  0  0
   -0.6225    1.7121    0.0000 C   0  0  0  0  0  0  0  0  0  0  0  0
   -1.1528    0.7936    0.0000 C   0  0  0  0  0  0  0  0  0  0  0  0
   -0.3404    0.1119    0.0000 C   0  0  0  0  0  0  0  0  0  0  0  0
  1  2  1  0
  3  2  2  0
  4  3  1  0
  4  5  2  0
  6  4  1  0
  7  6  1  0
  7  8  1  0
  7  9  1  0
 10  7  1  0
  2 10  1  0
M  END
>  <name>  (964) 
Isophorone

>  <Outcome>  (964) 
1

>  <SMILES>  (964) 
CC1=CC(=O)CC(C)(C)C1

$$$$

     RDKit          2D

  6  5  0  0  0  0  0  0  0  0999 V2000
    1.2375    2.1434    0.0000 C   0  0  0  0  0  0  0  0  0  0  0  0
    0.8250    1.4289    0.0000 C   0  0  0  0  0  0  0  0  0  0  0  0
    1.2375    0.7145    0.0000 C   0  0  0  0  0  0  0  0  0  0  0  0
    0.8250   -0.0000    0.0000 C   0  0  0  0  0  0  0  0  0  0  0  0
    1.2375   -0.7145    0.0000 C   0  0  0  0  0  0  0  0  0  0  0  0
   -0.0000   -0.0000    0.0000 O   0  0  0  0  0  0  0  0  0  0  0  0
  1  2  1  0
  2  3  1  0
  3  4  1  0
  4  5  1  0
  4  6  2  0
M  END
>  <name>  (965) 
pentan-2-one

>  <Outcome>  (965) 
0

>  <SMILES>  (965) 
CCCC(C)=O

$$$$

     RDKit          2D

 21 20  0  0  0  0  0  0  0  0999 V2000
    4.2388    3.2650    0.0000 C   0  0  0  0  0  0  0  0  0  0  0  0
    4.9533    2.8525    0.0000 C   0  0  0  0  0  0  0  0  0  0  0  0
    5.6677    3.2650    0.0000 C   0  0  0  0  0  0  0  0  0  0  0  0
    6.3822    2.8525    0.0000 C   0  0  0  0  0  0  0  0  0  0  0  0
    7.0967    3.2650    0.0000 C   0  0  0  0  0  0  0  0  0  0  0  0
    7.8111    2.8525    0.0000 C   0  0  0  0  0  0  0  0  0  0  0  0
    8.5256    3.2650    0.0000 C   0  0  0  0  0  0  0  0  0  0  0  0
    9.2401    2.8525    0.0000 C   0  0  0  0  0  0  0  0  0  0  0  0
    9.9546    3.2650    0.0000 C   0  0  0  0  0  0  0  0  0  0  0  0
   10.6690    2.8525    0.0000 C   0  0  0  0  0  0  0  0  0  0  0  0
   10.6690    2.0275    0.0000 C   0  0  0  0  0  0  0  0  0  0  0  0
   11.3835    3.2650    0.0000 C   0  0  0  0  0  0  0  0  0  0  0  0
   12.0980    2.8525    0.0000 C   0  0  0  0  0  0  0  0  0  0  0  0
   12.0980    2.0275    0.0000 C   0  0  0  0  0  0  0  0  0  0  0  0
   12.8124    1.6150    0.0000 C   0  0  0  0  0  0  0  0  0  0  0  0
   11.3835    1.6150    0.0000 O   0  0  0  0  0  0  0  0  0  0  0  0
   12.8124    3.2650    0.0000 C   0  0  0  0  0  0  0  0  0  0  0  0
   13.5269    2.8525    0.0000 O   0  0  0  0  0  0  0  0  0  0  0  0
   12.8124    4.0900    0.0000 O   0  0  0  0  0  0  0  0  0  0  0  0
   13.5269    4.5025    0.0000 C   0  0  0  0  0  0  0  0  0  0  0  0
   13.5269    5.3275    0.0000 C   0  0  0  0  0  0  0  0  0  0  0  0
  1  2  1  0
  2  3  1  0
  3  4  1  0
  4  5  1  0
  5  6  1  0
  6  7  1  0
  7  8  1  0
  8  9  1  0
  9 10  1  0
 10 11  1  0
 12 10  1  0
 12 13  2  0
 13 14  1  0
 14 15  1  0
 14 16  2  0
 13 17  1  0
 17 18  2  0
 17 19  1  0
 19 20  1  0
 20 21  1  0
M  END
>  <name>  (966) 
unnamed [960253-23-0]

>  <Outcome>  (966) 
1

>  <SMILES>  (966) 
CCCCCCCCCC(C)/C=C(\C(C)=O)C(=O)OCC

$$$$

     RDKit          2D

  2  1  0  0  0  0  0  0  0  0999 V2000
    0.0000    0.0000    0.0000 C   0  0  0  0  0  0  0  0  0  0  0  0
   -0.8250    0.0000    0.0000 O   0  0  0  0  0  0  0  0  0  0  0  0
  1  2  2  0
M  END
>  <name>  (967) 
Formaldehyde

>  <Outcome>  (967) 
1

>  <SMILES>  (967) 
C=O

$$$$

     RDKit          2D

 14 13  0  0  0  0  0  0  0  0999 V2000
    2.2228   -2.8328    0.0000 O   0  0  0  0  0  0  0  0  0  0  0  0
    1.5084   -2.4203    0.0000 C   0  0  0  0  0  0  0  0  0  0  0  0
    0.7939   -2.8328    0.0000 O   0  0  0  0  0  0  0  0  0  0  0  0
    1.5084   -1.5953    0.0000 C   0  0  0  0  0  0  0  0  0  0  0  0
    0.7939   -1.1828    0.0000 N   0  0  0  0  0  0  0  0  0  0  0  0
    0.0794   -1.5953    0.0000 C   0  0  0  0  0  0  0  0  0  0  0  0
   -0.6350   -1.1828    0.0000 C   0  0  0  0  0  0  0  0  0  0  0  0
   -1.3495   -1.5953    0.0000 O   0  0  0  0  0  0  0  0  0  0  0  0
   -0.6350   -0.3578    0.0000 O   0  0  0  0  0  0  0  0  0  0  0  0
    0.7939   -0.3578    0.0000 C   0  0  0  0  0  0  0  0  0  0  0  0
    1.5084    0.0547    0.0000 P   0  0  0  0  0  0  0  0  0  0  0  0
    1.9209   -0.6597    0.0000 O   0  0  0  0  0  0  0  0  0  0  0  0
    1.0959    0.7692    0.0000 O   0  0  0  0  0  0  0  0  0  0  0  0
    2.2228    0.4672    0.0000 O   0  0  0  0  0  0  0  0  0  0  0  0
  1  2  2  0
  2  3  1  0
  2  4  1  0
  4  5  1  0
  5  6  1  0
  6  7  1  0
  7  8  2  0
  7  9  1  0
  5 10  1  0
 10 11  1  0
 11 12  2  0
 11 13  1  0
 11 14  1  0
M  END
>  <name>  (968) 
2,2'-[(phosphonomethyl)imino]diacetic acid

>  <Outcome>  (968) 
0

>  <SMILES>  (968) 
O=C(O)CN(CC(=O)O)CP(=O)(O)O

$$$$

     RDKit          2D

  6  5  0  0  0  0  0  0  0  0999 V2000
    2.0639    0.7121    0.0000 C   0  0  0  0  0  0  0  0  0  0  0  0
    1.2389    0.7121    0.0000 C   0  0  0  0  0  0  0  0  0  0  0  0
    0.8264   -0.0023    0.0000 C   0  0  0  0  0  0  0  0  0  0  0  0
    0.0014   -0.0023    0.0000 C   0  0  0  0  0  0  0  0  0  0  0  0
   -0.4111   -0.7168    0.0000 C   0  0  0  0  0  0  0  0  0  0  0  0
   -0.8236   -1.4313    0.0000 N   0  0  0  0  0  0  0  0  0  0  0  0
  1  2  1  0
  3  2  1  0
  3  4  2  3
  4  5  1  0
  5  6  3  0
M  END
>  <name>  (969) 
pent-2-enenitrile

>  <Outcome>  (969) 
1

>  <SMILES>  (969) 
CCC=CC#N

$$$$

     RDKit          2D

 50 51  0  0  0  0  0  0  0  0999 V2000
    3.5657   -6.9861    0.0000 C   0  0  0  0  0  0  0  0  0  0  0  0
    3.5657   -7.8111    0.0000 C   0  0  0  0  0  0  0  0  0  0  0  0
    2.7407   -7.8111    0.0000 C   0  0  0  0  0  0  0  0  0  0  0  0
    4.3907   -7.8111    0.0000 C   0  0  0  0  0  0  0  0  0  0  0  0
    3.5657   -8.6361    0.0000 C   0  0  0  0  0  0  0  0  0  0  0  0
    4.2802   -9.0486    0.0000 C   0  0  0  0  0  0  0  0  0  0  0  0
    4.2802   -9.8736    0.0000 C   0  0  0  0  0  0  0  0  0  0  0  0
    4.9946  -10.2861    0.0000 C   0  0  0  0  0  0  0  0  0  0  0  0
    5.7091   -9.8736    0.0000 C   0  0  0  0  0  0  0  0  0  0  0  0
    6.4236  -10.2861    0.0000 C   0  0  0  0  0  0  0  0  0  0  0  0
    6.4236  -11.1111    0.0000 O   0  0  0  0  0  0  0  0  0  0  0  0
    7.1380   -9.8736    0.0000 O   0  0  0  0  0  0  0  0  0  0  0  0
    7.8525  -10.2861    0.0000 C   0  0  0  0  0  0  0  0  0  0  0  0
    8.5670   -9.8736    0.0000 C   0  0  0  0  0  0  0  0  0  0  0  0
    9.2815  -10.2861    0.0000 N   0  0  0  0  0  0  0  0  0  0  0  0
    9.9959   -9.8736    0.0000 C   0  0  0  0  0  0  0  0  0  0  0  0
    9.9959   -9.0486    0.0000 O   0  0  0  0  0  0  0  0  0  0  0  0
   10.7104  -10.2861    0.0000 C   0  0  0  0  0  0  0  0  0  0  0  0
   10.7104  -11.1111    0.0000 O   0  0  0  0  0  0  0  0  0  0  0  0
   11.4249   -9.8736    0.0000 N   0  0  0  0  0  0  0  0  0  0  0  0
   12.1393  -10.2861    0.0000 C   0  0  0  0  0  0  0  0  0  0  0  0
   12.8538   -9.8736    0.0000 C   0  0  0  0  0  0  0  0  0  0  0  0
   13.5683  -10.2861    0.0000 O   0  0  0  0  0  0  0  0  0  0  0  0
   14.2827   -9.8736    0.0000 C   0  0  0  0  0  0  0  0  0  0  0  0
   14.2827   -9.0486    0.0000 O   0  0  0  0  0  0  0  0  0  0  0  0
   14.9972  -10.2861    0.0000 C   0  0  0  0  0  0  0  0  0  0  0  0
   15.7117   -9.8736    0.0000 C   0  0  0  0  0  0  0  0  0  0  0  0
   16.4262  -10.2861    0.0000 C   0  0  0  0  0  0  0  0  0  0  0  0
   17.1406   -9.8736    0.0000 C   0  0  0  0  0  0  0  0  0  0  0  0
   17.8551  -10.2861    0.0000 C   0  0  0  0  0  0  0  0  0  0  0  0
   18.5696   -9.8736    0.0000 C   0  0  0  0  0  0  0  0  0  0  0  0
   19.2840   -9.4611    0.0000 C   0  0  0  0  0  0  0  0  0  0  0  0
   18.9821  -10.5881    0.0000 C   0  0  0  0  0  0  0  0  0  0  0  0
   18.1571   -9.1591    0.0000 C   0  0  0  0  0  0  0  0  0  0  0  0
   17.8551  -11.1111    0.0000 C   0  0  0  0  0  0  0  0  0  0  0  0
   18.5696  -11.5236    0.0000 O   0  0  0  0  0  0  0  0  0  0  0  0
   17.1406  -11.5236    0.0000 C   0  0  0  0  0  0  0  0  0  0  0  0
   17.1406  -12.3486    0.0000 C   0  0  0  0  0  0  0  0  0  0  0  0
   17.1406  -13.1736    0.0000 C   0  0  0  0  0  0  0  0  0  0  0  0
   16.3156  -12.3486    0.0000 C   0  0  0  0  0  0  0  0  0  0  0  0
   17.9656  -12.3486    0.0000 C   0  0  0  0  0  0  0  0  0  0  0  0
   16.4262  -11.1111    0.0000 C   0  0  0  0  0  0  0  0  0  0  0  0
    3.5657  -10.2861    0.0000 C   0  0  0  0  0  0  0  0  0  0  0  0
    2.8512   -9.8736    0.0000 C   0  0  0  0  0  0  0  0  0  0  0  0
    2.1367  -10.2861    0.0000 C   0  0  0  0  0  0  0  0  0  0  0  0
    1.4223  -10.6986    0.0000 C   0  0  0  0  0  0  0  0  0  0  0  0
    1.7242   -9.5716    0.0000 C   0  0  0  0  0  0  0  0  0  0  0  0
    2.5492  -11.0006    0.0000 C   0  0  0  0  0  0  0  0  0  0  0  0
    2.8512   -9.0486    0.0000 C   0  0  0  0  0  0  0  0  0  0  0  0
    2.1367   -8.6361    0.0000 O   0  0  0  0  0  0  0  0  0  0  0  0
  1  2  1  0
  2  3  1  0
  2  4  1  0
  2  5  1  0
  5  6  2  0
  6  7  1  0
  7  8  1  0
  8  9  1  0
  9 10  1  0
 10 11  2  0
 10 12  1  0
 12 13  1  0
 13 14  1  0
 14 15  1  0
 15 16  1  0
 16 17  2  0
 16 18  1  0
 18 19  2  0
 18 20  1  0
 20 21  1  0
 21 22  1  0
 22 23  1  0
 23 24  1  0
 24 25  2  0
 24 26  1  0
 26 27  1  0
 27 28  1  0
 28 29  2  0
 29 30  1  0
 30 31  1  0
 31 32  1  0
 31 33  1  0
 31 34  1  0
 30 35  2  0
 35 36  1  0
 35 37  1  0
 37 38  1  0
 38 39  1  0
 38 40  1  0
 38 41  1  0
 37 42  2  0
 28 42  1  0
  7 43  2  0
 43 44  1  0
 44 45  1  0
 45 46  1  0
 45 47  1  0
 45 48  1  0
 44 49  2  0
  5 49  1  0
 49 50  1  0
M  END
>  <name>  (970) 
2-{[(2-{[3-(3,5-di-tert-butyl-4-hydroxyphenyl)propanoyl]oxy}ethyl)carbamoyl]formamido}ethyl 3-(3,5-di-tert-butyl-4-hydroxyphenyl)propanoate

>  <Outcome>  (970) 
0

>  <SMILES>  (970) 
CC(C)(C)c1cc(CCC(=O)OCCNC(=O)C(=O)NCCOC(=O)CCc2cc(C(C)(C)C)c(O)c(C(C)(C)C)c2)cc(C(C)(C)C)c1O

$$$$

     RDKit          2D

 14 15  0  0  0  0  0  0  0  0999 V2000
    2.7845    0.6979    0.0000 C   0  0  0  0  0  0  0  0  0  0  0  0
    2.0701    1.1104    0.0000 N   0  0  0  0  0  0  0  0  0  0  0  0
    1.3556    0.6979    0.0000 C   0  0  0  0  0  0  0  0  0  0  0  0
    1.3556   -0.1271    0.0000 O   0  0  0  0  0  0  0  0  0  0  0  0
    0.6411    1.1104    0.0000 C   0  0  0  0  0  0  0  0  0  0  0  0
    0.6411    1.9354    0.0000 C   0  0  0  0  0  0  0  0  0  0  0  0
   -0.1435    2.1904    0.0000 N   0  0  0  0  0  0  0  0  0  0  0  0
   -0.6284    1.5229    0.0000 C   0  0  0  0  0  0  0  0  0  0  0  0
   -0.1435    0.8555    0.0000 N   0  0  0  0  0  0  0  0  0  0  0  0
   -0.3984    0.0709    0.0000 C   0  0  0  0  0  0  0  0  0  0  0  0
    1.3556    2.3479    0.0000 N   0  0  0  0  0  0  0  0  0  0  0  0
    1.3556    3.1729    0.0000 C   0  0  0  0  0  0  0  0  0  0  0  0
    2.0701    1.9354    0.0000 C   0  0  0  0  0  0  0  0  0  0  0  0
    2.7845    2.3479    0.0000 O   0  0  0  0  0  0  0  0  0  0  0  0
  1  2  1  0
  2  3  1  0
  3  4  2  0
  3  5  1  0
  5  6  2  0
  6  7  1  0
  7  8  2  0
  8  9  1  0
  5  9  1  0
  9 10  1  0
  6 11  1  0
 11 12  1  0
 11 13  1  0
  2 13  1  0
 13 14  2  0
M  END
>  <name>  (971) 
1,3,7-trimethyl-2,3,6,7-tetrahydro-1H-purine-2,6-dione

>  <Outcome>  (971) 
1

>  <SMILES>  (971) 
Cn1c(=O)c2c(ncn2C)n(C)c1=O

$$$$

     RDKit          2D

 16 17  0  0  0  0  0  0  0  0999 V2000
    0.5825   -2.9363    0.0000 C   0  0  0  0  0  0  0  0  0  0  0  0
    1.2970   -2.5238    0.0000 C   0  0  0  0  0  0  0  0  0  0  0  0
    2.0115   -2.9363    0.0000 C   0  0  0  0  0  0  0  0  0  0  0  0
    1.2970   -1.6988    0.0000 C   0  0  0  0  0  0  0  0  0  0  0  0
    0.5825   -1.2863    0.0000 C   0  0  0  0  0  0  0  0  0  0  0  0
    0.5825   -0.4613    0.0000 C   0  0  0  0  0  0  0  0  0  0  0  0
    1.2970   -0.0488    0.0000 C   0  0  0  0  0  0  0  0  0  0  0  0
    2.0115   -0.4613    0.0000 C   0  0  0  0  0  0  0  0  0  0  0  0
    2.7260   -0.0488    0.0000 C   0  0  0  0  0  0  0  0  0  0  0  0
    2.7260    0.7762    0.0000 C   0  0  0  0  0  0  0  0  0  0  0  0
    2.0115    1.1887    0.0000 C   0  0  0  0  0  0  0  0  0  0  0  0
    3.4404    1.1887    0.0000 C   0  0  0  0  0  0  0  0  0  0  0  0
    3.4404   -0.4613    0.0000 C   0  0  0  0  0  0  0  0  0  0  0  0
    3.4404   -1.2863    0.0000 C   0  0  0  0  0  0  0  0  0  0  0  0
    2.7260   -1.6988    0.0000 C   0  0  0  0  0  0  0  0  0  0  0  0
    2.0115   -1.2863    0.0000 C   0  0  0  0  0  0  0  0  0  0  0  0
  1  2  1  0
  2  3  1  0
  2  4  1  0
  4  5  2  0
  5  6  1  0
  6  7  2  0
  7  8  1  0
  8  9  2  0
  9 10  1  0
 10 11  1  0
 10 12  1  0
  9 13  1  0
 13 14  2  0
 14 15  1  0
 15 16  2  0
  4 16  1  0
  8 16  1  0
M  END
>  <name>  (972) 
1,2-bis(propan-2-yl)naphthalene

>  <Outcome>  (972) 
0

>  <SMILES>  (972) 
CC(C)c1cccc2c(C(C)C)cccc12

$$$$

     RDKit          2D

 54 54  0  0  0  0  0  0  0  0999 V2000
   18.8660  -10.3923    0.0000 C   0  0  0  0  0  0  0  0  0  0  0  0
   18.1160   -9.0933    0.0000 C   0  0  0  0  0  0  0  0  0  0  0  0
   16.6160   -9.0933    0.0000 C   0  0  0  0  0  0  0  0  0  0  0  0
   15.8660   -7.7942    0.0000 C   0  0  0  0  0  0  0  0  0  0  0  0
   14.3660   -7.7942    0.0000 C   0  0  0  0  0  0  0  0  0  0  0  0
   13.6160   -6.4952    0.0000 C   0  0  0  0  0  0  0  0  0  0  0  0
   12.1160   -6.4952    0.0000 C   0  0  0  0  0  0  0  0  0  0  0  0
   11.3660   -5.1962    0.0000 C   0  0  0  0  0  0  0  0  0  0  0  0
    9.8660   -5.1962    0.0000 C   0  0  0  0  0  0  0  0  0  0  0  0
    9.1160   -3.8971    0.0000 C   0  0  0  0  0  0  0  0  0  0  0  0
    7.6160   -3.8971    0.0000 C   0  0  0  0  0  0  0  0  0  0  0  0
    6.8660   -2.5981    0.0000 C   0  0  0  0  0  0  0  0  0  0  0  0
    5.3660   -2.5981    0.0000 C   0  0  0  0  0  0  0  0  0  0  0  0
    4.6160   -1.2990    0.0000 C   0  0  0  0  0  0  0  0  0  0  0  0
    3.1160   -1.2990    0.0000 O   0  0  0  0  0  0  0  0  0  0  0  0
    2.3660    0.0000    0.0000 C   0  0  0  0  0  0  0  0  0  0  0  0
    0.8660    0.0000    0.0000 C   0  0  0  0  0  0  0  0  0  0  0  0
   -0.4330    0.7500    0.0000 C   0  0  0  0  0  0  0  0  0  0  0  0
   -0.4330   -0.7500    0.0000 O   0  0  0  0  0  0  0  0  0  0  0  0
   18.1160    1.7500    0.0000 C   0  0  0  0  0  0  0  0  0  0  0  0
   16.6160    1.7500    0.0000 C   0  0  0  0  0  0  0  0  0  0  0  0
   15.8660    3.0490    0.0000 C   0  0  0  0  0  0  0  0  0  0  0  0
   14.3660    3.0490    0.0000 C   0  0  0  0  0  0  0  0  0  0  0  0
   13.6160    4.3481    0.0000 C   0  0  0  0  0  0  0  0  0  0  0  0
   12.1160    4.3481    0.0000 C   0  0  0  0  0  0  0  0  0  0  0  0
   11.3660    5.6471    0.0000 C   0  0  0  0  0  0  0  0  0  0  0  0
    9.8660    5.6471    0.0000 C   0  0  0  0  0  0  0  0  0  0  0  0
    9.1160    6.9462    0.0000 C   0  0  0  0  0  0  0  0  0  0  0  0
    7.6160    6.9462    0.0000 C   0  0  0  0  0  0  0  0  0  0  0  0
    6.8660    8.2452    0.0000 C   0  0  0  0  0  0  0  0  0  0  0  0
    5.3660    8.2452    0.0000 C   0  0  0  0  0  0  0  0  0  0  0  0
    4.6160    9.5442    0.0000 C   0  0  0  0  0  0  0  0  0  0  0  0
    3.1160    9.5442    0.0000 O   0  0  0  0  0  0  0  0  0  0  0  0
    2.3660   10.8433    0.0000 C   0  0  0  0  0  0  0  0  0  0  0  0
    0.8660   10.8433    0.0000 C   0  0  0  0  0  0  0  0  0  0  0  0
   -0.4330   11.5933    0.0000 C   0  0  0  0  0  0  0  0  0  0  0  0
   -0.4330   10.0933    0.0000 O   0  0  0  0  0  0  0  0  0  0  0  0
   36.9151   -9.0933    0.0000 C   0  0  0  0  0  0  0  0  0  0  0  0
   36.1651   -7.7942    0.0000 C   0  0  0  0  0  0  0  0  0  0  0  0
   34.6651   -7.7942    0.0000 C   0  0  0  0  0  0  0  0  0  0  0  0
   33.9151   -6.4952    0.0000 C   0  0  0  0  0  0  0  0  0  0  0  0
   32.4151   -6.4952    0.0000 C   0  0  0  0  0  0  0  0  0  0  0  0
   31.6651   -5.1962    0.0000 C   0  0  0  0  0  0  0  0  0  0  0  0
   30.1651   -5.1962    0.0000 C   0  0  0  0  0  0  0  0  0  0  0  0
   29.4151   -3.8971    0.0000 C   0  0  0  0  0  0  0  0  0  0  0  0
   27.9151   -3.8971    0.0000 C   0  0  0  0  0  0  0  0  0  0  0  0
   27.1651   -2.5981    0.0000 C   0  0  0  0  0  0  0  0  0  0  0  0
   25.6651   -2.5981    0.0000 C   0  0  0  0  0  0  0  0  0  0  0  0
   24.9151   -1.2990    0.0000 C   0  0  0  0  0  0  0  0  0  0  0  0
   23.4151   -1.2990    0.0000 O   0  0  0  0  0  0  0  0  0  0  0  0
   22.6651    0.0000    0.0000 C   0  0  0  0  0  0  0  0  0  0  0  0
   21.1651    0.0000    0.0000 C   0  0  0  0  0  0  0  0  0  0  0  0
   19.8660    0.7500    0.0000 C   0  0  0  0  0  0  0  0  0  0  0  0
   19.8660   -0.7500    0.0000 O   0  0  0  0  0  0  0  0  0  0  0  0
  1  2  1  0
  2  3  1  0
  3  4  1  0
  4  5  1  0
  5  6  1  0
  6  7  1  0
  7  8  1  0
  8  9  1  0
  9 10  1  0
 10 11  1  0
 11 12  1  0
 12 13  1  0
 13 14  1  0
 14 15  1  0
 15 16  1  0
 16 17  1  0
 17 18  1  0
 18 19  1  0
 20 21  1  0
 21 22  1  0
 22 23  1  0
 23 24  1  0
 24 25  1  0
 25 26  1  0
 26 27  1  0
 27 28  1  0
 28 29  1  0
 29 30  1  0
 30 31  1  0
 31 32  1  0
 32 33  1  0
 33 34  1  0
 34 35  1  0
 35 36  1  0
 36 37  1  0
 38 39  1  0
 39 40  1  0
 40 41  1  0
 41 42  1  0
 42 43  1  0
 43 44  1  0
 44 45  1  0
 45 46  1  0
 46 47  1  0
 47 48  1  0
 48 49  1  0
 49 50  1  0
 50 51  1  0
 51 52  1  0
 52 53  1  0
 53 54  1  0
 19 17  1  0
 37 35  1  0
 54 52  1  0
M  END
>  <name>  (973) 
2-(dodecoxymethyl)oxirane;2-(tetradecoxymethyl)oxirane;2-(tridecoxymethyl)oxirane

>  <Outcome>  (973) 
2

>  <SMILES>  (973) 
CCCCCCCCCCCCCCOCC1CO1.CCCCCCCCCCCCCOCC1CO1.CCCCCCCCCCCCOCC1CO1

$$$$

     RDKit          2D

 10 10  0  0  0  0  0  0  0  0999 V2000
   -1.0595   -0.8035    0.0000 C   0  0  0  0  0  0  0  0  0  0  0  0
   -0.2390   -0.8898    0.0000 C   0  0  0  0  0  0  0  0  0  0  0  0
    0.2459   -0.2223    0.0000 N   0  0  0  0  0  0  0  0  0  0  0  0
   -0.0090    0.5623    0.0000 C   0  0  0  0  0  0  0  0  0  0  0  0
    0.6584    1.0472    0.0000 C   0  0  0  0  0  0  0  0  0  0  0  0
    1.3259    0.5623    0.0000 N   0  0  0  0  0  0  0  0  0  0  0  0
    2.1105    0.8172    0.0000 C   0  0  0  0  0  0  0  0  0  0  0  0
    2.2820    1.6242    0.0000 C   0  0  0  0  0  0  0  0  0  0  0  0
    1.0709   -0.2223    0.0000 C   0  0  0  0  0  0  0  0  0  0  0  0
    1.5559   -0.8898    0.0000 O   0  0  0  0  0  0  0  0  0  0  0  0
  1  2  2  0
  2  3  1  0
  3  4  1  0
  4  5  1  0
  5  6  1  0
  6  7  1  0
  7  8  2  0
  6  9  1  0
  3  9  1  0
  9 10  2  0
M  END
>  <name>  (974) 
1,3-divinylimidazolidin-2-one

>  <Outcome>  (974) 
0

>  <SMILES>  (974) 
C=CN1CCN(C=C)C1=O

$$$$

     RDKit          2D

  8  7  0  0  0  0  0  0  0  0999 V2000
    1.2531    2.2573    0.0000 C   0  0  0  0  0  0  0  0  0  0  0  0
    0.8406    1.5428    0.0000 C   0  0  0  0  0  0  0  0  0  0  0  0
    0.0156    1.5428    0.0000 C   0  0  0  0  0  0  0  0  0  0  0  0
    1.2531    0.8283    0.0000 C   0  0  0  0  0  0  0  0  0  0  0  0
    2.0781    0.8283    0.0000 N   0  0  0  0  0  0  0  0  0  0  0  0
    0.8406    0.1139    0.0000 C   0  0  0  0  0  0  0  0  0  0  0  0
    1.2531   -0.6006    0.0000 O   0  0  0  0  0  0  0  0  0  0  0  0
    0.0156    0.1139    0.0000 O   0  0  0  0  0  0  0  0  0  0  0  0
  1  2  1  0
  2  3  1  0
  2  4  1  0
  4  5  1  0
  4  6  1  0
  6  7  2  0
  6  8  1  0
M  END
>  <name>  (975) 
(2S)-2-amino-3-methylbutanoic acid

>  <Outcome>  (975) 
0

>  <SMILES>  (975) 
CC(C)C(N)C(=O)O

$$$$

     RDKit          2D

  9  8  0  0  0  0  0  0  0  0999 V2000
   -0.2861    0.7031    0.0000 C   0  0  0  0  0  0  0  0  0  0  0  0
    0.4284    1.1156    0.0000 C   0  0  0  0  0  0  0  0  0  0  0  0
    1.1428    0.7031    0.0000 C   0  0  0  0  0  0  0  0  0  0  0  0
    1.1428   -0.1219    0.0000 C   0  0  0  0  0  0  0  0  0  0  0  0
    1.8573    1.1156    0.0000 C   0  0  0  0  0  0  0  0  0  0  0  0
    1.8573    1.9406    0.0000 N   0  0  0  0  0  0  0  0  0  0  0  0
    2.5718    0.7031    0.0000 C   0  0  0  0  0  0  0  0  0  0  0  0
    3.2862    1.1156    0.0000 O   0  0  0  0  0  0  0  0  0  0  0  0
    2.5718   -0.1219    0.0000 O   0  0  0  0  0  0  0  0  0  0  0  0
  1  2  1  0
  2  3  1  0
  3  4  1  0
  3  5  1  0
  5  6  1  0
  5  7  1  0
  7  8  2  0
  7  9  1  0
M  END
>  <name>  (976) 
(2S)-2-amino-3-methylpentanoic acid

>  <Outcome>  (976) 
0

>  <SMILES>  (976) 
CCC(C)C(N)C(=O)O

$$$$

     RDKit          2D

 11 11  0  0  0  0  0  0  0  0999 V2000
    5.2500    1.2990    0.0000 C   0  0  0  0  0  0  0  0  0  0  0  0
    4.5000    0.0000    0.0000 C   0  0  0  0  0  0  0  0  0  0  0  0
    3.0000    0.0000    0.0000 Si  0  0  0  0  0  4  0  0  0  0  0  0
    1.5000    0.0000    0.0000 C   0  0  0  0  0  0  0  0  0  0  0  0
    0.7500   -1.2990    0.0000 C   0  0  0  0  0  0  0  0  0  0  0  0
   -0.7500   -1.2990    0.0000 C   0  0  0  0  0  0  0  0  0  0  0  0
   -1.5000    0.0000    0.0000 C   0  0  0  0  0  0  0  0  0  0  0  0
   -0.7500    1.2990    0.0000 C   0  0  0  0  0  0  0  0  0  0  0  0
    0.7500    1.2990    0.0000 C   0  0  0  0  0  0  0  0  0  0  0  0
    3.0000    1.5000    0.0000 Cl  0  0  0  0  0  0  0  0  0  0  0  0
    3.0000   -1.5000    0.0000 Cl  0  0  0  0  0  0  0  0  0  0  0  0
  1  2  1  0
  2  3  1  0
  3  4  1  0
  4  5  2  0
  5  6  1  0
  6  7  2  0
  7  8  1  0
  8  9  2  0
  3 10  1  0
  3 11  1  0
  9  4  1  0
M  END
>  <name>  (977) 
dichloro-ethyl-phenylsilane

>  <Outcome>  (977) 
2

>  <SMILES>  (977) 
CC[Si](Cl)(Cl)c1ccccc1

$$$$

     RDKit          2D

  6  5  0  0  0  0  0  0  0  0999 V2000
    1.2375    2.1434    0.0000 C   0  0  0  0  0  0  0  0  0  0  0  0
    0.8250    1.4289    0.0000 C   0  0  0  0  0  0  0  0  0  0  0  0
    1.2375    0.7145    0.0000 O   0  0  0  0  0  0  0  0  0  0  0  0
    0.8250   -0.0000    0.0000 C   0  0  0  0  0  0  0  0  0  0  0  0
    1.2375   -0.7145    0.0000 C   0  0  0  0  0  0  0  0  0  0  0  0
   -0.0000   -0.0000    0.0000 O   0  0  0  0  0  0  0  0  0  0  0  0
  1  2  2  0
  2  3  1  0
  3  4  1  0
  4  5  1  0
  4  6  2  0
M  END
>  <name>  (978) 
ethenyl acetate

>  <Outcome>  (978) 
1

>  <SMILES>  (978) 
C=COC(C)=O

$$$$

     RDKit          2D

 16 17  0  0  0  0  0  0  0  0999 V2000
    4.7760    0.3938    0.0000 C   0  0  0  0  0  0  0  0  0  0  0  0
    3.9510    0.3938    0.0000 C   0  0  0  0  0  0  0  0  0  0  0  0
    3.9510    1.2188    0.0000 C   0  0  0  0  0  0  0  0  0  0  0  0
    3.9510   -0.4312    0.0000 C   0  0  0  0  0  0  0  0  0  0  0  0
    3.1260    0.3938    0.0000 C   0  0  0  0  0  0  0  0  0  0  0  0
    2.7135   -0.3207    0.0000 C   0  0  0  0  0  0  0  0  0  0  0  0
    1.8885   -0.3207    0.0000 C   0  0  0  0  0  0  0  0  0  0  0  0
    1.4760    0.3938    0.0000 C   0  0  0  0  0  0  0  0  0  0  0  0
    1.8885    1.1082    0.0000 C   0  0  0  0  0  0  0  0  0  0  0  0
    2.7135    1.1082    0.0000 C   0  0  0  0  0  0  0  0  0  0  0  0
    0.9911   -0.2737    0.0000 O   0  0  0  0  0  0  0  0  0  0  0  0
    0.2065   -0.0187    0.0000 C   0  0  0  0  0  0  0  0  0  0  0  0
    0.2065    0.8063    0.0000 C   0  0  0  0  0  0  0  0  0  0  0  0
   -0.4610    1.2912    0.0000 C   0  0  0  0  0  0  0  0  0  0  0  0
   -1.2146    0.9556    0.0000 Cl  0  0  0  0  0  0  0  0  0  0  0  0
    0.9911    1.0612    0.0000 O   0  0  0  0  0  0  0  0  0  0  0  0
  1  2  1  0
  2  3  1  0
  2  4  1  0
  2  5  1  0
  5  6  1  0
  6  7  1  0
  7  8  1  0
  8  9  1  0
  9 10  1  0
  5 10  1  0
  8 11  1  0
 11 12  1  0
 12 13  1  0
 13 14  1  0
 14 15  1  0
 13 16  1  0
  8 16  1  0
M  END
>  <name>  (979) 
unnamed [118135-28-7]

>  <Outcome>  (979) 
0

>  <SMILES>  (979) 
CC(C)(C)C1CCC2(CC1)OCC(CCl)O2

$$$$
